Circuit: * C:\Users\wesle\Desktop\projetos\Fonte\DC_to_DC_boost\boost_ltSpice.asc

Direct Newton iteration for .op point succeeded.

Date: Mon Jan 20 10:16:20 2020
Total elapsed time: 0.861 seconds.

tnom = 27
temp = 27
method = modified trap
totiter = 162788
traniter = 162778
tranpoints = 46779
accept = 35459
rejected = 11320
matrix size = 10
fillins = 0
solver = Normal
Matrix Compiler1:      22 opcodes  0.1/[0.1]/0.1
Matrix Compiler2: off  [0.1]/0.1/0.1

