Circuit: * C:\Users\wesle\Desktop\vacation\lm555\Astable_mode\LTspice\schematic.asc

Direct Newton iteration for .op point succeeded.

Date: Thu Dec 19 15:32:04 2019
Total elapsed time: 0.180 seconds.

tnom = 27
temp = 27
method = modified trap
totiter = 3223
traniter = 3215
tranpoints = 1339
accept = 1284
rejected = 55
matrix size = 14
fillins = 0
solver = Normal
Matrix Compiler1: 384 bytes object code size  0.3/0.2/[0.1]
Matrix Compiler2: 776 bytes object code size  0.2/0.3/[0.2]

