Circuit: * C:\Users\wesle\Desktop\projetos\dobrador_tensao\half_bridge.asc

.OP point found by inspection.

Date: Sun Jan 19 12:09:49 2020
Total elapsed time: 0.619 seconds.

tnom = 27
temp = 27
method = modified trap
totiter = 88613
traniter = 88613
tranpoints = 29894
accept = 24210
rejected = 5684
matrix size = 4
fillins = 0
solver = Normal
Matrix Compiler1: 136 bytes object code size  0.1/0.1/[0.1]
Matrix Compiler2: off  [0.1]/0.1/0.1

