Circuit: * C:\Users\wesle\Desktop\projetos\lm555\timer_granja\LTspice\schematic.asc

Direct Newton iteration for .op point succeeded.

Date: Sun Apr 05 18:05:44 2020
Total elapsed time: 1.440 seconds.

tnom = 27
temp = 27
method = modified trap
totiter = 67915
traniter = 67907
tranpoints = 31925
accept = 31515
rejected = 410
matrix size = 14
fillins = 0
solver = Normal
Matrix Compiler1: 384 bytes object code size  0.2/0.1/[0.1]
Matrix Compiler2: 776 bytes object code size  0.1/0.2/[0.1]

