Circuit: * C:\Users\wesle\Desktop\projetos\timer_granja\lm555\schematic.asc

Unknown model type "ron" -- ignored
