Circuit: * C:\Users\wesle\Desktop\projetos\Fonte\DC_to_DC_buck\buck_ltSpice.asc

Direct Newton iteration for .op point succeeded.

Date: Mon Jan 20 10:21:13 2020
Total elapsed time: 0.620 seconds.

tnom = 27
temp = 27
method = modified trap
totiter = 148497
traniter = 148492
tranpoints = 47485
accept = 36315
rejected = 11170
matrix size = 14
fillins = 0
solver = Normal
Matrix Compiler1: 590 bytes object code size  0.1/0.1/[0.1]
Matrix Compiler2: off  [0.1]/0.1/0.1

