Circuit: * C:\Users\wesle\Desktop\projetos\joule_thief\joule_thief_V2.asc

Direct Newton iteration for .op point succeeded.
Heightened Def Con from 0.00689819 ++++++++++++++++++++++++to 0.0068982
Heightened Def Con from 0.0068982 ++++++++++++++++++++++++to 0.0068982
Heightened Def Con from 0.0068982 ++++++++++++++++++++++++to 0.0068982
Heightened Def Con from 0.0068982 ++++++++++++++++++++++++to 0.0068982
Heightened Def Con from 0.0068982 ++++++++++++++++++++++++to 0.0068982
Heightened Def Con from 0.0068982 ++++++++++++++++++++++++to 0.0068982
Heightened Def Con from 0.00689821 ++++++++++++++++++++++++to 0.00689821
Heightened Def Con from 0.00689821 ++++++++++++++++++++++++to 0.00689821
Heightened Def Con from 0.00689821 ++++++++++++++++++++++++to 0.00689821
Heightened Def Con from 0.00689821 ++++++++++++++++++++++++to 0.00689821
Heightened Def Con from 0.00689821 ++++++++++++++++++++++++to 0.00689821
Heightened Def Con from 0.00689822 ++++++++++++++++++++++++to 0.00689822
Heightened Def Con from 0.00689822 ++++++++++++++++++++++++to 0.00689822
Heightened Def Con from 0.00689822 ++++++++++++++++++++++++to 0.00689822
Heightened Def Con from 0.00689822 ++++++++++++++++++++++++to 0.00689822
Heightened Def Con from 0.00689822 ++++++++++++++++++++++++to 0.00689822
Heightened Def Con from 0.00689823 ++++++++++++++++++++++++to 0.00689823
Heightened Def Con from 0.00689823 ++++++++++++++++++++++++to 0.00689823
Heightened Def Con from 0.00689823 ++++++++++++++++++++++++to 0.00689823
Heightened Def Con from 0.00689823 ++++++++++++++++++++++++to 0.00689823
Heightened Def Con from 0.00689823 ++++++++++++++++++++++++to 0.00689823
Heightened Def Con from 0.00689823 ++++++++++++++++++++++++to 0.00689824
Heightened Def Con from 0.00689824 ++++++++++++++++++++++++to 0.00689824
Heightened Def Con from 0.00689824 ++++++++++++++++++++++++to 0.00689824
Heightened Def Con from 0.00689824 ++++++++++++++++++++++++to 0.00689824
Heightened Def Con from 0.00689824 ++++++++++++++++++++++++to 0.00689824
Heightened Def Con from 0.00689824 ++++++++++++++++++++++++to 0.00689825
Heightened Def Con from 0.00689825 ++++++++++++++++++++++++to 0.00689825
Heightened Def Con from 0.00689825 ++++++++++++++++++++++++to 0.00689825
Heightened Def Con from 0.00689825 ++++++++++++++++++++++++to 0.00689825
Heightened Def Con from 0.00689825 ++++++++++++++++++++++++to 0.00689825
Heightened Def Con from 0.00689825 ++++++++++++++++++++++++to 0.00689825
Heightened Def Con from 0.00689826 ++++++++++++++++++++++++to 0.00689826
Heightened Def Con from 0.00689826 ++++++++++++++++++++++++to 0.00689826
Heightened Def Con from 0.00689826 ++++++++++++++++++++++++to 0.00689826
Heightened Def Con from 0.00689826 ++++++++++++++++++++++++to 0.00689826
Heightened Def Con from 0.00689826 ++++++++++++++++++++++++to 0.00689826
Heightened Def Con from 0.00689827 ++++++++++++++++++++++++to 0.00689827
Heightened Def Con from 0.00689827 ++++++++++++++++++++++++to 0.00689827
Heightened Def Con from 0.00689827 ++++++++++++++++++++++++to 0.00689827
Heightened Def Con from 0.00689827 ++++++++++++++++++++++++to 0.00689827
Heightened Def Con from 0.00689827 ++++++++++++++++++++++++to 0.00689827
Heightened Def Con from 0.00689828 ++++++++++++++++++++++++to 0.00689828
Heightened Def Con from 0.00689828 ++++++++++++++++++++++++to 0.00689828
Heightened Def Con from 0.00689828 ++++++++++++++++++++++++to 0.00689828
Heightened Def Con from 0.00689828 ++++++++++++++++++++++++to 0.00689828
Heightened Def Con from 0.00689828 ++++++++++++++++++++++++to 0.00689828
Heightened Def Con from 0.00689828 ++++++++++++++++++++++++to 0.00689829
Heightened Def Con from 0.00689829 ++++++++++++++++++++++++to 0.00689829
Heightened Def Con from 0.00689829 ++++++++++++++++++++++++to 0.00689829
Heightened Def Con from 0.00689829 ++++++++++++++++++++++++to 0.00689829
Heightened Def Con from 0.00689829 ++++++++++++++++++++++++to 0.00689829
Heightened Def Con from 0.00689829 ++++++++++++++++++++++++to 0.0068983
Heightened Def Con from 0.0068983 ++++++++++++++++++++++++to 0.0068983
Heightened Def Con from 0.0068983 ++++++++++++++++++++++++to 0.0068983
Heightened Def Con from 0.0068983 ++++++++++++++++++++++++to 0.0068983
Heightened Def Con from 0.0068983 ++++++++++++++++++++++++to 0.0068983
Heightened Def Con from 0.0068983 ++++++++++++++++++++++++to 0.00689831
Heightened Def Con from 0.00689831 ++++++++++++++++++++++++to 0.00689831
Heightened Def Con from 0.00689831 ++++++++++++++++++++++++to 0.00689831
Heightened Def Con from 0.00689831 ++++++++++++++++++++++++to 0.00689831
Heightened Def Con from 0.00689831 ++++++++++++++++++++++++to 0.00689831
Heightened Def Con from 0.00689831 ++++++++++++++++++++++++to 0.00689831
Heightened Def Con from 0.00689832 ++++++++++++++++++++++++to 0.00689832
Heightened Def Con from 0.00689832 ++++++++++++++++++++++++to 0.00689832
Heightened Def Con from 0.00689832 ++++++++++++++++++++++++to 0.00689832
Heightened Def Con from 0.00689832 ++++++++++++++++++++++++to 0.00689832
Heightened Def Con from 0.00689832 ++++++++++++++++++++++++to 0.00689832
Heightened Def Con from 0.00689833 ++++++++++++++++++++++++to 0.00689833
Heightened Def Con from 0.00689833 ++++++++++++++++++++++++to 0.00689833
Heightened Def Con from 0.00689833 ++++++++++++++++++++++++to 0.00689833
Heightened Def Con from 0.00689833 ++++++++++++++++++++++++to 0.00689833
Heightened Def Con from 0.00689833 ++++++++++++++++++++++++to 0.00689833
Heightened Def Con from 0.00689833 ++++++++++++++++++++++++to 0.00689834
Heightened Def Con from 0.00689834 ++++++++++++++++++++++++to 0.00689834
Heightened Def Con from 0.00689834 ++++++++++++++++++++++++to 0.00689834
Heightened Def Con from 0.00689834 ++++++++++++++++++++++++to 0.00689834
Heightened Def Con from 0.00689834 ++++++++++++++++++++++++to 0.00689834
Heightened Def Con from 0.00689834 ++++++++++++++++++++++++to 0.00689835
Heightened Def Con from 0.00689835 ++++++++++++++++++++++++to 0.00689835
Heightened Def Con from 0.00689835 ++++++++++++++++++++++++to 0.00689835
Heightened Def Con from 0.00689835 ++++++++++++++++++++++++to 0.00689835
Heightened Def Con from 0.00689835 ++++++++++++++++++++++++to 0.00689835
Heightened Def Con from 0.00689835 ++++++++++++++++++++++++to 0.00689836
Heightened Def Con from 0.00689836 ++++++++++++++++++++++++to 0.00689836
Heightened Def Con from 0.00689836 ++++++++++++++++++++++++to 0.00689836
Heightened Def Con from 0.00689836 ++++++++++++++++++++++++to 0.00689836
Heightened Def Con from 0.00689836 ++++++++++++++++++++++++to 0.00689836
Heightened Def Con from 0.00689836 ++++++++++++++++++++++++to 0.00689836
Heightened Def Con from 0.00689837 ++++++++++++++++++++++++to 0.00689837
Heightened Def Con from 0.00689837 ++++++++++++++++++++++++to 0.00689837
Heightened Def Con from 0.00689837 ++++++++++++++++++++++++to 0.00689837
Heightened Def Con from 0.00689837 ++++++++++++++++++++++++to 0.00689837
Heightened Def Con from 0.00689837 ++++++++++++++++++++++++to 0.00689837
Heightened Def Con from 0.00689838 ++++++++++++++++++++++++to 0.00689838
Heightened Def Con from 0.00689838 ++++++++++++++++++++++++to 0.00689838
Heightened Def Con from 0.00689838 ++++++++++++++++++++++++to 0.00689838
Heightened Def Con from 0.00689838 ++++++++++++++++++++++++to 0.00689838
Heightened Def Con from 0.00689838 ++++++++++++++++++++++++to 0.00689838
Heightened Def Con from 0.00689838 ++++++++++++++++++++++++to 0.00689839
Heightened Def Con from 0.00689839 ++++++++++++++++++++++++to 0.00689839
Heightened Def Con from 0.00689839 ++++++++++++++++++++++++to 0.00689839
Heightened Def Con from 0.00689839 ++++++++++++++++++++++++to 0.00689839
Heightened Def Con from 0.00689839 ++++++++++++++++++++++++to 0.00689839
Heightened Def Con from 0.00689839 ++++++++++++++++++++++++to 0.0068984
Heightened Def Con from 0.0068984 ++++++++++++++++++++++++to 0.0068984
Heightened Def Con from 0.0068984 ++++++++++++++++++++++++to 0.0068984
Heightened Def Con from 0.0068984 ++++++++++++++++++++++++to 0.0068984
Heightened Def Con from 0.0068984 ++++++++++++++++++++++++to 0.0068984
Heightened Def Con from 0.0068984 ++++++++++++++++++++++++to 0.00689841
Heightened Def Con from 0.00689841 ++++++++++++++++++++++++to 0.00689841
Heightened Def Con from 0.00689841 ++++++++++++++++++++++++to 0.00689841
Heightened Def Con from 0.00689841 ++++++++++++++++++++++++to 0.00689841
Heightened Def Con from 0.00689841 ++++++++++++++++++++++++to 0.00689841
Heightened Def Con from 0.00689841 ++++++++++++++++++++++++to 0.00689841
Heightened Def Con from 0.00689842 ++++++++++++++++++++++++to 0.00689842
Heightened Def Con from 0.00689842 ++++++++++++++++++++++++to 0.00689842
Heightened Def Con from 0.00689842 ++++++++++++++++++++++++to 0.00689842
Heightened Def Con from 0.00689842 ++++++++++++++++++++++++to 0.00689842
Heightened Def Con from 0.00689842 ++++++++++++++++++++++++to 0.00689842
Heightened Def Con from 0.00689843 ++++++++++++++++++++++++to 0.00689843
Heightened Def Con from 0.00689843 ++++++++++++++++++++++++to 0.00689843
Heightened Def Con from 0.00689843 ++++++++++++++++++++++++to 0.00689843
Heightened Def Con from 0.00689843 ++++++++++++++++++++++++to 0.00689843
Heightened Def Con from 0.00689843 ++++++++++++++++++++++++to 0.00689843
Heightened Def Con from 0.00689843 ++++++++++++++++++++++++to 0.00689844
Heightened Def Con from 0.00689844 ++++++++++++++++++++++++to 0.00689844
Heightened Def Con from 0.00689844 ++++++++++++++++++++++++to 0.00689844
Heightened Def Con from 0.00689844 ++++++++++++++++++++++++to 0.00689844
Heightened Def Con from 0.00689844 ++++++++++++++++++++++++to 0.00689844
Heightened Def Con from 0.00689844 ++++++++++++++++++++++++to 0.00689845
Heightened Def Con from 0.00689845 ++++++++++++++++++++++++to 0.00689845
Heightened Def Con from 0.00689845 ++++++++++++++++++++++++to 0.00689845
Heightened Def Con from 0.00689845 ++++++++++++++++++++++++to 0.00689845
Heightened Def Con from 0.00689845 ++++++++++++++++++++++++to 0.00689845
Heightened Def Con from 0.00689845 ++++++++++++++++++++++++to 0.00689846
Heightened Def Con from 0.00689846 ++++++++++++++++++++++++to 0.00689846
Heightened Def Con from 0.00689846 ++++++++++++++++++++++++to 0.00689846
Heightened Def Con from 0.00689846 ++++++++++++++++++++++++to 0.00689846
Heightened Def Con from 0.00689846 ++++++++++++++++++++++++to 0.00689846
Heightened Def Con from 0.00689846 ++++++++++++++++++++++++to 0.00689846
Heightened Def Con from 0.00689847 ++++++++++++++++++++++++to 0.00689847
Heightened Def Con from 0.00689847 ++++++++++++++++++++++++to 0.00689847
Heightened Def Con from 0.00689847 ++++++++++++++++++++++++to 0.00689847
Heightened Def Con from 0.00689847 ++++++++++++++++++++++++to 0.00689847
Heightened Def Con from 0.00689847 ++++++++++++++++++++++++to 0.00689847
Heightened Def Con from 0.00689848 ++++++++++++++++++++++++to 0.00689848
Heightened Def Con from 0.00689848 ++++++++++++++++++++++++to 0.00689848
Heightened Def Con from 0.00689848 ++++++++++++++++++++++++to 0.00689848
Heightened Def Con from 0.00689848 ++++++++++++++++++++++++to 0.00689848
Heightened Def Con from 0.00689848 ++++++++++++++++++++++++to 0.00689848
Heightened Def Con from 0.00689848 ++++++++++++++++++++++++to 0.00689849
Heightened Def Con from 0.00689849 ++++++++++++++++++++++++to 0.00689849
Heightened Def Con from 0.00689849 ++++++++++++++++++++++++to 0.00689849
Heightened Def Con from 0.00689849 ++++++++++++++++++++++++to 0.00689849
Heightened Def Con from 0.00689849 ++++++++++++++++++++++++to 0.00689849
Heightened Def Con from 0.00689849 ++++++++++++++++++++++++to 0.0068985
Heightened Def Con from 0.0068985 ++++++++++++++++++++++++to 0.0068985
Heightened Def Con from 0.0068985 ++++++++++++++++++++++++to 0.0068985
Heightened Def Con from 0.0068985 ++++++++++++++++++++++++to 0.0068985
Heightened Def Con from 0.0068985 ++++++++++++++++++++++++to 0.0068985
Heightened Def Con from 0.0068985 ++++++++++++++++++++++++to 0.00689851
Heightened Def Con from 0.00689851 ++++++++++++++++++++++++to 0.00689851
Heightened Def Con from 0.00689851 ++++++++++++++++++++++++to 0.00689851
Heightened Def Con from 0.00689851 ++++++++++++++++++++++++to 0.00689851
Heightened Def Con from 0.00689851 ++++++++++++++++++++++++to 0.00689851
Heightened Def Con from 0.00689851 ++++++++++++++++++++++++to 0.00689851
Heightened Def Con from 0.00689852 ++++++++++++++++++++++++to 0.00689852
Heightened Def Con from 0.00689852 ++++++++++++++++++++++++to 0.00689852
Heightened Def Con from 0.00689852 ++++++++++++++++++++++++to 0.00689852
Heightened Def Con from 0.00689852 ++++++++++++++++++++++++to 0.00689852
Heightened Def Con from 0.00689852 ++++++++++++++++++++++++to 0.00689852
Heightened Def Con from 0.00689853 ++++++++++++++++++++++++to 0.00689853
Heightened Def Con from 0.00689853 ++++++++++++++++++++++++to 0.00689853
Heightened Def Con from 0.00689853 ++++++++++++++++++++++++to 0.00689853
Heightened Def Con from 0.00689853 ++++++++++++++++++++++++to 0.00689853
Heightened Def Con from 0.00689853 ++++++++++++++++++++++++to 0.00689853
Heightened Def Con from 0.00689853 ++++++++++++++++++++++++to 0.00689854
Heightened Def Con from 0.00689854 ++++++++++++++++++++++++to 0.00689854
Heightened Def Con from 0.00689854 ++++++++++++++++++++++++to 0.00689854
Heightened Def Con from 0.00689854 ++++++++++++++++++++++++to 0.00689854
Heightened Def Con from 0.00689854 ++++++++++++++++++++++++to 0.00689854
Heightened Def Con from 0.00689854 ++++++++++++++++++++++++to 0.00689855
Heightened Def Con from 0.00689855 ++++++++++++++++++++++++to 0.00689855
Heightened Def Con from 0.00689855 ++++++++++++++++++++++++to 0.00689855
Heightened Def Con from 0.00689855 ++++++++++++++++++++++++to 0.00689855
Heightened Def Con from 0.00689855 ++++++++++++++++++++++++to 0.00689855
Heightened Def Con from 0.00689855 ++++++++++++++++++++++++to 0.00689856
Heightened Def Con from 0.00689856 ++++++++++++++++++++++++to 0.00689856
Heightened Def Con from 0.00689856 ++++++++++++++++++++++++to 0.00689856
Heightened Def Con from 0.00689856 ++++++++++++++++++++++++to 0.00689856
Heightened Def Con from 0.00689856 ++++++++++++++++++++++++to 0.00689856
Heightened Def Con from 0.00689856 ++++++++++++++++++++++++to 0.00689856
Heightened Def Con from 0.00689857 ++++++++++++++++++++++++to 0.00689857
Heightened Def Con from 0.00689857 ++++++++++++++++++++++++to 0.00689857
Heightened Def Con from 0.00689857 ++++++++++++++++++++++++to 0.00689857
Heightened Def Con from 0.00689857 ++++++++++++++++++++++++to 0.00689857
Heightened Def Con from 0.00689857 ++++++++++++++++++++++++to 0.00689857
Heightened Def Con from 0.00689858 ++++++++++++++++++++++++to 0.00689858
Heightened Def Con from 0.00689858 ++++++++++++++++++++++++to 0.00689858
Heightened Def Con from 0.00689858 ++++++++++++++++++++++++to 0.00689858
Heightened Def Con from 0.00689858 ++++++++++++++++++++++++to 0.00689858
Heightened Def Con from 0.00689858 ++++++++++++++++++++++++to 0.00689858
Heightened Def Con from 0.00689858 ++++++++++++++++++++++++to 0.00689859
Heightened Def Con from 0.00689859 ++++++++++++++++++++++++to 0.00689859
Heightened Def Con from 0.00689859 ++++++++++++++++++++++++to 0.00689859
Heightened Def Con from 0.00689859 ++++++++++++++++++++++++to 0.00689859
Heightened Def Con from 0.00689859 ++++++++++++++++++++++++to 0.00689859
Heightened Def Con from 0.00689859 ++++++++++++++++++++++++to 0.0068986
Heightened Def Con from 0.0068986 ++++++++++++++++++++++++to 0.0068986
Heightened Def Con from 0.0068986 ++++++++++++++++++++++++to 0.0068986
Heightened Def Con from 0.0068986 ++++++++++++++++++++++++to 0.0068986
Heightened Def Con from 0.0068986 ++++++++++++++++++++++++to 0.0068986
Heightened Def Con from 0.0068986 ++++++++++++++++++++++++to 0.00689861
Heightened Def Con from 0.00689861 ++++++++++++++++++++++++to 0.00689861
Heightened Def Con from 0.00689861 ++++++++++++++++++++++++to 0.00689861
Heightened Def Con from 0.00689861 ++++++++++++++++++++++++to 0.00689861
Heightened Def Con from 0.00689861 ++++++++++++++++++++++++to 0.00689861
Heightened Def Con from 0.00689861 ++++++++++++++++++++++++to 0.00689861
Heightened Def Con from 0.00689862 ++++++++++++++++++++++++to 0.00689862
Heightened Def Con from 0.00689862 ++++++++++++++++++++++++to 0.00689862
Heightened Def Con from 0.00689862 ++++++++++++++++++++++++to 0.00689862
Heightened Def Con from 0.00689862 ++++++++++++++++++++++++to 0.00689862
Heightened Def Con from 0.00689862 ++++++++++++++++++++++++to 0.00689862
Heightened Def Con from 0.00689863 ++++++++++++++++++++++++to 0.00689863
Heightened Def Con from 0.00689863 ++++++++++++++++++++++++to 0.00689863
Heightened Def Con from 0.00689863 ++++++++++++++++++++++++to 0.00689863
Heightened Def Con from 0.00689863 ++++++++++++++++++++++++to 0.00689863
Heightened Def Con from 0.00689863 ++++++++++++++++++++++++to 0.00689863
Heightened Def Con from 0.00689864 ++++++++++++++++++++++++to 0.00689864
Heightened Def Con from 0.00689864 ++++++++++++++++++++++++to 0.00689864
Heightened Def Con from 0.00689864 ++++++++++++++++++++++++to 0.00689864
Heightened Def Con from 0.00689864 ++++++++++++++++++++++++to 0.00689864
Heightened Def Con from 0.00689864 ++++++++++++++++++++++++to 0.00689864
Heightened Def Con from 0.00689864 ++++++++++++++++++++++++to 0.00689865
Heightened Def Con from 0.00689865 ++++++++++++++++++++++++to 0.00689865
Heightened Def Con from 0.00689865 ++++++++++++++++++++++++to 0.00689865
Heightened Def Con from 0.00689865 ++++++++++++++++++++++++to 0.00689865
Heightened Def Con from 0.00689865 ++++++++++++++++++++++++to 0.00689865
Heightened Def Con from 0.00689865 ++++++++++++++++++++++++to 0.00689866
Heightened Def Con from 0.00689866 ++++++++++++++++++++++++to 0.00689866
Heightened Def Con from 0.00689866 ++++++++++++++++++++++++to 0.00689866
Heightened Def Con from 0.00689866 ++++++++++++++++++++++++to 0.00689866
Heightened Def Con from 0.00689866 ++++++++++++++++++++++++to 0.00689866
Heightened Def Con from 0.00689866 ++++++++++++++++++++++++to 0.00689866
Heightened Def Con from 0.00689867 ++++++++++++++++++++++++to 0.00689867
Heightened Def Con from 0.00689867 ++++++++++++++++++++++++to 0.00689867
Heightened Def Con from 0.00689867 ++++++++++++++++++++++++to 0.00689867
Heightened Def Con from 0.00689867 ++++++++++++++++++++++++to 0.00689867
Heightened Def Con from 0.00689867 ++++++++++++++++++++++++to 0.00689867
Heightened Def Con from 0.00689868 ++++++++++++++++++++++++to 0.00689868
Heightened Def Con from 0.00689868 ++++++++++++++++++++++++to 0.00689868
Heightened Def Con from 0.00689868 ++++++++++++++++++++++++to 0.00689868
Heightened Def Con from 0.00689868 ++++++++++++++++++++++++to 0.00689868
Heightened Def Con from 0.00689868 ++++++++++++++++++++++++to 0.00689868
Heightened Def Con from 0.00689869 ++++++++++++++++++++++++to 0.00689869
Heightened Def Con from 0.00689869 ++++++++++++++++++++++++to 0.00689869
Heightened Def Con from 0.00689869 ++++++++++++++++++++++++to 0.00689869
Heightened Def Con from 0.00689869 ++++++++++++++++++++++++to 0.00689869
Heightened Def Con from 0.00689869 ++++++++++++++++++++++++to 0.00689869
Heightened Def Con from 0.00689869 ++++++++++++++++++++++++to 0.0068987
Heightened Def Con from 0.0068987 ++++++++++++++++++++++++to 0.0068987
Heightened Def Con from 0.0068987 ++++++++++++++++++++++++to 0.0068987
Heightened Def Con from 0.0068987 ++++++++++++++++++++++++to 0.0068987
Heightened Def Con from 0.0068987 ++++++++++++++++++++++++to 0.0068987
Heightened Def Con from 0.0068987 ++++++++++++++++++++++++to 0.00689871
Heightened Def Con from 0.00689871 ++++++++++++++++++++++++to 0.00689871
Heightened Def Con from 0.00689871 ++++++++++++++++++++++++to 0.00689871
Heightened Def Con from 0.00689871 ++++++++++++++++++++++++to 0.00689871
Heightened Def Con from 0.00689871 ++++++++++++++++++++++++to 0.00689871
Heightened Def Con from 0.00689871 ++++++++++++++++++++++++to 0.00689871
Heightened Def Con from 0.00689872 ++++++++++++++++++++++++to 0.00689872
Heightened Def Con from 0.00689872 ++++++++++++++++++++++++to 0.00689872
Heightened Def Con from 0.00689872 ++++++++++++++++++++++++to 0.00689872
Heightened Def Con from 0.00689872 ++++++++++++++++++++++++to 0.00689872
Heightened Def Con from 0.00689872 ++++++++++++++++++++++++to 0.00689872
Heightened Def Con from 0.00689873 ++++++++++++++++++++++++to 0.00689873
Heightened Def Con from 0.00689873 ++++++++++++++++++++++++to 0.00689873
Heightened Def Con from 0.00689873 ++++++++++++++++++++++++to 0.00689873
Heightened Def Con from 0.00689873 ++++++++++++++++++++++++to 0.00689873
Heightened Def Con from 0.00689873 ++++++++++++++++++++++++to 0.00689873
Heightened Def Con from 0.00689874 ++++++++++++++++++++++++to 0.00689874
Heightened Def Con from 0.00689874 ++++++++++++++++++++++++to 0.00689874
Heightened Def Con from 0.00689874 ++++++++++++++++++++++++to 0.00689874
Heightened Def Con from 0.00689874 ++++++++++++++++++++++++to 0.00689874
Heightened Def Con from 0.00689874 ++++++++++++++++++++++++to 0.00689874
Heightened Def Con from 0.00689874 ++++++++++++++++++++++++to 0.00689875
Heightened Def Con from 0.00689875 ++++++++++++++++++++++++to 0.00689875
Heightened Def Con from 0.00689875 ++++++++++++++++++++++++to 0.00689875
Heightened Def Con from 0.00689875 ++++++++++++++++++++++++to 0.00689875
Heightened Def Con from 0.00689875 ++++++++++++++++++++++++to 0.00689875
Heightened Def Con from 0.00689875 ++++++++++++++++++++++++to 0.00689876
Heightened Def Con from 0.00689876 ++++++++++++++++++++++++to 0.00689876
Heightened Def Con from 0.00689876 ++++++++++++++++++++++++to 0.00689876
Heightened Def Con from 0.00689876 ++++++++++++++++++++++++to 0.00689876
Heightened Def Con from 0.00689876 ++++++++++++++++++++++++to 0.00689876
Heightened Def Con from 0.00689876 ++++++++++++++++++++++++to 0.00689876
Heightened Def Con from 0.00689877 ++++++++++++++++++++++++to 0.00689877
Heightened Def Con from 0.00689877 ++++++++++++++++++++++++to 0.00689877
Heightened Def Con from 0.00689877 ++++++++++++++++++++++++to 0.00689877
Heightened Def Con from 0.00689877 ++++++++++++++++++++++++to 0.00689877
Heightened Def Con from 0.00689877 ++++++++++++++++++++++++to 0.00689877
Heightened Def Con from 0.00689878 ++++++++++++++++++++++++to 0.00689878
Heightened Def Con from 0.00689878 ++++++++++++++++++++++++to 0.00689878
Heightened Def Con from 0.00689878 ++++++++++++++++++++++++to 0.00689878
Heightened Def Con from 0.00689878 ++++++++++++++++++++++++to 0.00689878
Heightened Def Con from 0.00689878 ++++++++++++++++++++++++to 0.00689878
Heightened Def Con from 0.00689879 ++++++++++++++++++++++++to 0.00689879
Heightened Def Con from 0.00689879 ++++++++++++++++++++++++to 0.00689879
Heightened Def Con from 0.00689879 ++++++++++++++++++++++++to 0.00689879
Heightened Def Con from 0.00689879 ++++++++++++++++++++++++to 0.00689879
Heightened Def Con from 0.00689879 ++++++++++++++++++++++++to 0.00689879
Heightened Def Con from 0.00689879 ++++++++++++++++++++++++to 0.0068988
Heightened Def Con from 0.0068988 ++++++++++++++++++++++++to 0.0068988
Heightened Def Con from 0.0068988 ++++++++++++++++++++++++to 0.0068988
Heightened Def Con from 0.0068988 ++++++++++++++++++++++++to 0.0068988
Heightened Def Con from 0.0068988 ++++++++++++++++++++++++to 0.0068988
Heightened Def Con from 0.0068988 ++++++++++++++++++++++++to 0.00689881
Heightened Def Con from 0.00689881 ++++++++++++++++++++++++to 0.00689881
Heightened Def Con from 0.00689881 ++++++++++++++++++++++++to 0.00689881
Heightened Def Con from 0.00689881 ++++++++++++++++++++++++to 0.00689881
Heightened Def Con from 0.00689881 ++++++++++++++++++++++++to 0.00689881
Heightened Def Con from 0.00689881 ++++++++++++++++++++++++to 0.00689881
Heightened Def Con from 0.00689882 ++++++++++++++++++++++++to 0.00689882
Heightened Def Con from 0.00689882 ++++++++++++++++++++++++to 0.00689882
Heightened Def Con from 0.00689882 ++++++++++++++++++++++++to 0.00689882
Heightened Def Con from 0.00689882 ++++++++++++++++++++++++to 0.00689882
Heightened Def Con from 0.00689882 ++++++++++++++++++++++++to 0.00689882
Heightened Def Con from 0.00689883 ++++++++++++++++++++++++to 0.00689883
Heightened Def Con from 0.00689883 ++++++++++++++++++++++++to 0.00689883
Heightened Def Con from 0.00689883 ++++++++++++++++++++++++to 0.00689883
Heightened Def Con from 0.00689883 ++++++++++++++++++++++++to 0.00689883
Heightened Def Con from 0.00689883 ++++++++++++++++++++++++to 0.00689883
Heightened Def Con from 0.00689884 ++++++++++++++++++++++++to 0.00689884
Heightened Def Con from 0.00689884 ++++++++++++++++++++++++to 0.00689884
Heightened Def Con from 0.00689884 ++++++++++++++++++++++++to 0.00689884
Heightened Def Con from 0.00689884 ++++++++++++++++++++++++to 0.00689884
Heightened Def Con from 0.00689884 ++++++++++++++++++++++++to 0.00689884
Heightened Def Con from 0.00689884 ++++++++++++++++++++++++to 0.00689885
Heightened Def Con from 0.00689885 ++++++++++++++++++++++++to 0.00689885
Heightened Def Con from 0.00689885 ++++++++++++++++++++++++to 0.00689885
Heightened Def Con from 0.00689885 ++++++++++++++++++++++++to 0.00689885
Heightened Def Con from 0.00689885 ++++++++++++++++++++++++to 0.00689885
Heightened Def Con from 0.00689885 ++++++++++++++++++++++++to 0.00689886
Heightened Def Con from 0.00689886 ++++++++++++++++++++++++to 0.00689886
Heightened Def Con from 0.00689886 ++++++++++++++++++++++++to 0.00689886
Heightened Def Con from 0.00689886 ++++++++++++++++++++++++to 0.00689886
Heightened Def Con from 0.00689886 ++++++++++++++++++++++++to 0.00689886
Heightened Def Con from 0.00689886 ++++++++++++++++++++++++to 0.00689887
Heightened Def Con from 0.00689887 ++++++++++++++++++++++++to 0.00689887
Heightened Def Con from 0.00689887 ++++++++++++++++++++++++to 0.00689887
Heightened Def Con from 0.00689887 ++++++++++++++++++++++++to 0.00689887
Heightened Def Con from 0.00689887 ++++++++++++++++++++++++to 0.00689887
Heightened Def Con from 0.00689887 ++++++++++++++++++++++++to 0.00689887
Heightened Def Con from 0.00689888 ++++++++++++++++++++++++to 0.00689888
Heightened Def Con from 0.00689888 ++++++++++++++++++++++++to 0.00689888
Heightened Def Con from 0.00689888 ++++++++++++++++++++++++to 0.00689888
Heightened Def Con from 0.00689888 ++++++++++++++++++++++++to 0.00689888
Heightened Def Con from 0.00689888 ++++++++++++++++++++++++to 0.00689888
Heightened Def Con from 0.00689889 ++++++++++++++++++++++++to 0.00689889
Heightened Def Con from 0.00689889 ++++++++++++++++++++++++to 0.00689889
Heightened Def Con from 0.00689889 ++++++++++++++++++++++++to 0.00689889
Heightened Def Con from 0.00689889 ++++++++++++++++++++++++to 0.00689889
Heightened Def Con from 0.00689889 ++++++++++++++++++++++++to 0.00689889
Heightened Def Con from 0.00689889 ++++++++++++++++++++++++to 0.0068989
Heightened Def Con from 0.0068989 ++++++++++++++++++++++++to 0.0068989
Heightened Def Con from 0.0068989 ++++++++++++++++++++++++to 0.0068989
Heightened Def Con from 0.0068989 ++++++++++++++++++++++++to 0.0068989
Heightened Def Con from 0.0068989 ++++++++++++++++++++++++to 0.0068989
Heightened Def Con from 0.0068989 ++++++++++++++++++++++++to 0.00689891
Heightened Def Con from 0.00689891 ++++++++++++++++++++++++to 0.00689891
Heightened Def Con from 0.00689891 ++++++++++++++++++++++++to 0.00689891
Heightened Def Con from 0.00689891 ++++++++++++++++++++++++to 0.00689891
Heightened Def Con from 0.00689891 ++++++++++++++++++++++++to 0.00689891
Heightened Def Con from 0.00689891 ++++++++++++++++++++++++to 0.00689892
Heightened Def Con from 0.00689892 ++++++++++++++++++++++++to 0.00689892
Heightened Def Con from 0.00689892 ++++++++++++++++++++++++to 0.00689892
Heightened Def Con from 0.00689892 ++++++++++++++++++++++++to 0.00689892
Heightened Def Con from 0.00689892 ++++++++++++++++++++++++to 0.00689892
Heightened Def Con from 0.00689892 ++++++++++++++++++++++++to 0.00689892
Heightened Def Con from 0.00689893 ++++++++++++++++++++++++to 0.00689893
Heightened Def Con from 0.00689893 ++++++++++++++++++++++++to 0.00689893
Heightened Def Con from 0.00689893 ++++++++++++++++++++++++to 0.00689893
Heightened Def Con from 0.00689893 ++++++++++++++++++++++++to 0.00689893
Heightened Def Con from 0.00689893 ++++++++++++++++++++++++to 0.00689893
Heightened Def Con from 0.00689894 ++++++++++++++++++++++++to 0.00689894
Heightened Def Con from 0.00689894 ++++++++++++++++++++++++to 0.00689894
Heightened Def Con from 0.00689894 ++++++++++++++++++++++++to 0.00689894
Heightened Def Con from 0.00689894 ++++++++++++++++++++++++to 0.00689894
Heightened Def Con from 0.00689894 ++++++++++++++++++++++++to 0.00689894
Heightened Def Con from 0.00689894 ++++++++++++++++++++++++to 0.00689895
Heightened Def Con from 0.00689895 ++++++++++++++++++++++++to 0.00689895
Heightened Def Con from 0.00689895 ++++++++++++++++++++++++to 0.00689895
Heightened Def Con from 0.00689895 ++++++++++++++++++++++++to 0.00689895
Heightened Def Con from 0.00689895 ++++++++++++++++++++++++to 0.00689895
Heightened Def Con from 0.00689895 ++++++++++++++++++++++++to 0.00689896
Heightened Def Con from 0.00689896 ++++++++++++++++++++++++to 0.00689896
Heightened Def Con from 0.00689896 ++++++++++++++++++++++++to 0.00689896
Heightened Def Con from 0.00689896 ++++++++++++++++++++++++to 0.00689896
Heightened Def Con from 0.00689896 ++++++++++++++++++++++++to 0.00689896
Heightened Def Con from 0.00689896 ++++++++++++++++++++++++to 0.00689897
Heightened Def Con from 0.00689897 ++++++++++++++++++++++++to 0.00689897
Heightened Def Con from 0.00689897 ++++++++++++++++++++++++to 0.00689897
Heightened Def Con from 0.00689897 ++++++++++++++++++++++++to 0.00689897
Heightened Def Con from 0.00689897 ++++++++++++++++++++++++to 0.00689897
Heightened Def Con from 0.00689897 ++++++++++++++++++++++++to 0.00689897
Heightened Def Con from 0.00689898 ++++++++++++++++++++++++to 0.00689898
Heightened Def Con from 0.00689898 ++++++++++++++++++++++++to 0.00689898
Heightened Def Con from 0.00689898 ++++++++++++++++++++++++to 0.00689898
Heightened Def Con from 0.00689898 ++++++++++++++++++++++++to 0.00689898
Heightened Def Con from 0.00689898 ++++++++++++++++++++++++to 0.00689898
Heightened Def Con from 0.00689899 ++++++++++++++++++++++++to 0.00689899
Heightened Def Con from 0.00689899 ++++++++++++++++++++++++to 0.00689899
Heightened Def Con from 0.00689899 ++++++++++++++++++++++++to 0.00689899
Heightened Def Con from 0.00689899 ++++++++++++++++++++++++to 0.00689899
Heightened Def Con from 0.00689899 ++++++++++++++++++++++++to 0.00689899
Heightened Def Con from 0.00689899 ++++++++++++++++++++++++to 0.006899
Heightened Def Con from 0.006899 ++++++++++++++++++++++++to 0.006899
Heightened Def Con from 0.006899 ++++++++++++++++++++++++to 0.006899
Heightened Def Con from 0.006899 ++++++++++++++++++++++++to 0.006899
Heightened Def Con from 0.006899 ++++++++++++++++++++++++to 0.006899
Heightened Def Con from 0.006899 ++++++++++++++++++++++++to 0.00689901
Heightened Def Con from 0.00689901 ++++++++++++++++++++++++to 0.00689901
Heightened Def Con from 0.00689901 ++++++++++++++++++++++++to 0.00689901
Heightened Def Con from 0.00689901 ++++++++++++++++++++++++to 0.00689901
Heightened Def Con from 0.00689901 ++++++++++++++++++++++++to 0.00689901
Heightened Def Con from 0.00689901 ++++++++++++++++++++++++to 0.00689902
Heightened Def Con from 0.00689902 ++++++++++++++++++++++++to 0.00689902
Heightened Def Con from 0.00689902 ++++++++++++++++++++++++to 0.00689902
Heightened Def Con from 0.00689902 ++++++++++++++++++++++++to 0.00689902
Heightened Def Con from 0.00689902 ++++++++++++++++++++++++to 0.00689902
Heightened Def Con from 0.00689902 ++++++++++++++++++++++++to 0.00689902
Heightened Def Con from 0.00689903 ++++++++++++++++++++++++to 0.00689903
Heightened Def Con from 0.00689903 ++++++++++++++++++++++++to 0.00689903
Heightened Def Con from 0.00689903 ++++++++++++++++++++++++to 0.00689903
Heightened Def Con from 0.00689903 ++++++++++++++++++++++++to 0.00689903
Heightened Def Con from 0.00689903 ++++++++++++++++++++++++to 0.00689903
Heightened Def Con from 0.00689904 ++++++++++++++++++++++++to 0.00689904
Heightened Def Con from 0.00689904 ++++++++++++++++++++++++to 0.00689904
Heightened Def Con from 0.00689904 ++++++++++++++++++++++++to 0.00689904
Heightened Def Con from 0.00689904 ++++++++++++++++++++++++to 0.00689904
Heightened Def Con from 0.00689904 ++++++++++++++++++++++++to 0.00689904
Heightened Def Con from 0.00689904 ++++++++++++++++++++++++to 0.00689905
Heightened Def Con from 0.00689905 ++++++++++++++++++++++++to 0.00689905
Heightened Def Con from 0.00689905 ++++++++++++++++++++++++to 0.00689905
Heightened Def Con from 0.00689905 ++++++++++++++++++++++++to 0.00689905
Heightened Def Con from 0.00689905 ++++++++++++++++++++++++to 0.00689905
Heightened Def Con from 0.00689905 ++++++++++++++++++++++++to 0.00689906
Heightened Def Con from 0.00689906 ++++++++++++++++++++++++to 0.00689906
Heightened Def Con from 0.00689906 ++++++++++++++++++++++++to 0.00689906
Heightened Def Con from 0.00689906 ++++++++++++++++++++++++to 0.00689906
Heightened Def Con from 0.00689906 ++++++++++++++++++++++++to 0.00689906
Heightened Def Con from 0.00689906 ++++++++++++++++++++++++to 0.00689907
Heightened Def Con from 0.00689907 ++++++++++++++++++++++++to 0.00689907
Heightened Def Con from 0.00689907 ++++++++++++++++++++++++to 0.00689907
Heightened Def Con from 0.00689907 ++++++++++++++++++++++++to 0.00689907
Heightened Def Con from 0.00689907 ++++++++++++++++++++++++to 0.00689907
Heightened Def Con from 0.00689907 ++++++++++++++++++++++++to 0.00689907
Heightened Def Con from 0.00689908 ++++++++++++++++++++++++to 0.00689908
Heightened Def Con from 0.00689908 ++++++++++++++++++++++++to 0.00689908
Heightened Def Con from 0.00689908 ++++++++++++++++++++++++to 0.00689908
Heightened Def Con from 0.00689908 ++++++++++++++++++++++++to 0.00689908
Heightened Def Con from 0.00689908 ++++++++++++++++++++++++to 0.00689908
Heightened Def Con from 0.00689909 ++++++++++++++++++++++++to 0.00689909
Heightened Def Con from 0.00689909 ++++++++++++++++++++++++to 0.00689909
Heightened Def Con from 0.00689909 ++++++++++++++++++++++++to 0.00689909
Heightened Def Con from 0.00689909 ++++++++++++++++++++++++to 0.00689909
Heightened Def Con from 0.00689909 ++++++++++++++++++++++++to 0.00689909
Heightened Def Con from 0.00689909 ++++++++++++++++++++++++to 0.0068991
Heightened Def Con from 0.0068991 ++++++++++++++++++++++++to 0.0068991
Heightened Def Con from 0.0068991 ++++++++++++++++++++++++to 0.0068991
Heightened Def Con from 0.0068991 ++++++++++++++++++++++++to 0.0068991
Heightened Def Con from 0.0068991 ++++++++++++++++++++++++to 0.0068991
Heightened Def Con from 0.0068991 ++++++++++++++++++++++++to 0.00689911
Heightened Def Con from 0.00689911 ++++++++++++++++++++++++to 0.00689911
Heightened Def Con from 0.00689911 ++++++++++++++++++++++++to 0.00689911
Heightened Def Con from 0.00689911 ++++++++++++++++++++++++to 0.00689911
Heightened Def Con from 0.00689911 ++++++++++++++++++++++++to 0.00689911
Heightened Def Con from 0.00689911 ++++++++++++++++++++++++to 0.00689912
Heightened Def Con from 0.00689912 ++++++++++++++++++++++++to 0.00689912
Heightened Def Con from 0.00689912 ++++++++++++++++++++++++to 0.00689912
Heightened Def Con from 0.00689912 ++++++++++++++++++++++++to 0.00689912
Heightened Def Con from 0.00689912 ++++++++++++++++++++++++to 0.00689912
Heightened Def Con from 0.00689912 ++++++++++++++++++++++++to 0.00689912
Heightened Def Con from 0.00689913 ++++++++++++++++++++++++to 0.00689913
Heightened Def Con from 0.00689913 ++++++++++++++++++++++++to 0.00689913
Heightened Def Con from 0.00689913 ++++++++++++++++++++++++to 0.00689913
Heightened Def Con from 0.00689913 ++++++++++++++++++++++++to 0.00689913
Heightened Def Con from 0.00689913 ++++++++++++++++++++++++to 0.00689913
Heightened Def Con from 0.00689914 ++++++++++++++++++++++++to 0.00689914
Heightened Def Con from 0.00689914 ++++++++++++++++++++++++to 0.00689914
Heightened Def Con from 0.00689914 ++++++++++++++++++++++++to 0.00689914
Heightened Def Con from 0.00689914 ++++++++++++++++++++++++to 0.00689914
Heightened Def Con from 0.00689914 ++++++++++++++++++++++++to 0.00689914
Heightened Def Con from 0.00689914 ++++++++++++++++++++++++to 0.00689915
Heightened Def Con from 0.00689915 ++++++++++++++++++++++++to 0.00689915
Heightened Def Con from 0.00689915 ++++++++++++++++++++++++to 0.00689915
Heightened Def Con from 0.00689915 ++++++++++++++++++++++++to 0.00689915
Heightened Def Con from 0.00689915 ++++++++++++++++++++++++to 0.00689915
Heightened Def Con from 0.00689915 ++++++++++++++++++++++++to 0.00689916
Heightened Def Con from 0.00689916 ++++++++++++++++++++++++to 0.00689916
Heightened Def Con from 0.00689916 ++++++++++++++++++++++++to 0.00689916
Heightened Def Con from 0.00689916 ++++++++++++++++++++++++to 0.00689916
Heightened Def Con from 0.00689916 ++++++++++++++++++++++++to 0.00689916
Heightened Def Con from 0.00689916 ++++++++++++++++++++++++to 0.00689917
Heightened Def Con from 0.00689917 ++++++++++++++++++++++++to 0.00689917
Heightened Def Con from 0.00689917 ++++++++++++++++++++++++to 0.00689917
Heightened Def Con from 0.00689917 ++++++++++++++++++++++++to 0.00689917
Heightened Def Con from 0.00689917 ++++++++++++++++++++++++to 0.00689917
Heightened Def Con from 0.00689917 ++++++++++++++++++++++++to 0.00689917
Heightened Def Con from 0.00689918 ++++++++++++++++++++++++to 0.00689918
Heightened Def Con from 0.00689918 ++++++++++++++++++++++++to 0.00689918
Heightened Def Con from 0.00689918 ++++++++++++++++++++++++to 0.00689918
Heightened Def Con from 0.00689918 ++++++++++++++++++++++++to 0.00689918
Heightened Def Con from 0.00689918 ++++++++++++++++++++++++to 0.00689918
Heightened Def Con from 0.00689919 ++++++++++++++++++++++++to 0.00689919
Heightened Def Con from 0.00689919 ++++++++++++++++++++++++to 0.00689919
Heightened Def Con from 0.00689919 ++++++++++++++++++++++++to 0.00689919
Heightened Def Con from 0.00689919 ++++++++++++++++++++++++to 0.00689919
Heightened Def Con from 0.00689919 ++++++++++++++++++++++++to 0.00689919
Heightened Def Con from 0.0068992 ++++++++++++++++++++++++to 0.0068992
Heightened Def Con from 0.0068992 ++++++++++++++++++++++++to 0.0068992
Heightened Def Con from 0.0068992 ++++++++++++++++++++++++to 0.0068992
Heightened Def Con from 0.0068992 ++++++++++++++++++++++++to 0.0068992
Heightened Def Con from 0.0068992 ++++++++++++++++++++++++to 0.0068992
Heightened Def Con from 0.0068992 ++++++++++++++++++++++++to 0.00689921
Heightened Def Con from 0.00689921 ++++++++++++++++++++++++to 0.00689921
Heightened Def Con from 0.00689921 ++++++++++++++++++++++++to 0.00689921
Heightened Def Con from 0.00689921 ++++++++++++++++++++++++to 0.00689921
Heightened Def Con from 0.00689921 ++++++++++++++++++++++++to 0.00689921
Heightened Def Con from 0.00689921 ++++++++++++++++++++++++to 0.00689922
Heightened Def Con from 0.00689922 ++++++++++++++++++++++++to 0.00689922
Heightened Def Con from 0.00689922 ++++++++++++++++++++++++to 0.00689922
Heightened Def Con from 0.00689922 ++++++++++++++++++++++++to 0.00689922
Heightened Def Con from 0.00689922 ++++++++++++++++++++++++to 0.00689922
Heightened Def Con from 0.00689922 ++++++++++++++++++++++++to 0.00689922
Heightened Def Con from 0.00689923 ++++++++++++++++++++++++to 0.00689923
Heightened Def Con from 0.00689923 ++++++++++++++++++++++++to 0.00689923
Heightened Def Con from 0.00689923 ++++++++++++++++++++++++to 0.00689923
Heightened Def Con from 0.00689923 ++++++++++++++++++++++++to 0.00689923
Heightened Def Con from 0.00689923 ++++++++++++++++++++++++to 0.00689923
Heightened Def Con from 0.00689924 ++++++++++++++++++++++++to 0.00689924
Heightened Def Con from 0.00689924 ++++++++++++++++++++++++to 0.00689924
Heightened Def Con from 0.00689924 ++++++++++++++++++++++++to 0.00689924
Heightened Def Con from 0.00689924 ++++++++++++++++++++++++to 0.00689924
Heightened Def Con from 0.00689924 ++++++++++++++++++++++++to 0.00689924
Heightened Def Con from 0.00689925 ++++++++++++++++++++++++to 0.00689925
Heightened Def Con from 0.00689925 ++++++++++++++++++++++++to 0.00689925
Heightened Def Con from 0.00689925 ++++++++++++++++++++++++to 0.00689925
Heightened Def Con from 0.00689925 ++++++++++++++++++++++++to 0.00689925
Heightened Def Con from 0.00689925 ++++++++++++++++++++++++to 0.00689925
Heightened Def Con from 0.00689925 ++++++++++++++++++++++++to 0.00689926
Heightened Def Con from 0.00689926 ++++++++++++++++++++++++to 0.00689926
Heightened Def Con from 0.00689926 ++++++++++++++++++++++++to 0.00689926
Heightened Def Con from 0.00689926 ++++++++++++++++++++++++to 0.00689926
Heightened Def Con from 0.00689926 ++++++++++++++++++++++++to 0.00689926
Heightened Def Con from 0.00689926 ++++++++++++++++++++++++to 0.00689927
Heightened Def Con from 0.00689927 ++++++++++++++++++++++++to 0.00689927
Heightened Def Con from 0.00689927 ++++++++++++++++++++++++to 0.00689927
Heightened Def Con from 0.00689927 ++++++++++++++++++++++++to 0.00689927
Heightened Def Con from 0.00689927 ++++++++++++++++++++++++to 0.00689927
Heightened Def Con from 0.00689927 ++++++++++++++++++++++++to 0.00689927
Heightened Def Con from 0.00689928 ++++++++++++++++++++++++to 0.00689928
Heightened Def Con from 0.00689928 ++++++++++++++++++++++++to 0.00689928
Heightened Def Con from 0.00689928 ++++++++++++++++++++++++to 0.00689928
Heightened Def Con from 0.00689928 ++++++++++++++++++++++++to 0.00689928
Heightened Def Con from 0.00689928 ++++++++++++++++++++++++to 0.00689928
Heightened Def Con from 0.00689929 ++++++++++++++++++++++++to 0.00689929
Heightened Def Con from 0.00689929 ++++++++++++++++++++++++to 0.00689929
Heightened Def Con from 0.00689929 ++++++++++++++++++++++++to 0.00689929
Heightened Def Con from 0.00689929 ++++++++++++++++++++++++to 0.00689929
Heightened Def Con from 0.00689929 ++++++++++++++++++++++++to 0.00689929
Heightened Def Con from 0.0068993 ++++++++++++++++++++++++to 0.0068993
Heightened Def Con from 0.0068993 ++++++++++++++++++++++++to 0.0068993
Heightened Def Con from 0.0068993 ++++++++++++++++++++++++to 0.0068993
Heightened Def Con from 0.0068993 ++++++++++++++++++++++++to 0.0068993
Heightened Def Con from 0.0068993 ++++++++++++++++++++++++to 0.0068993
Heightened Def Con from 0.0068993 ++++++++++++++++++++++++to 0.00689931
Heightened Def Con from 0.00689931 ++++++++++++++++++++++++to 0.00689931
Heightened Def Con from 0.00689931 ++++++++++++++++++++++++to 0.00689931
Heightened Def Con from 0.00689931 ++++++++++++++++++++++++to 0.00689931
Heightened Def Con from 0.00689931 ++++++++++++++++++++++++to 0.00689931
Heightened Def Con from 0.00689931 ++++++++++++++++++++++++to 0.00689932
Heightened Def Con from 0.00689932 ++++++++++++++++++++++++to 0.00689932
Heightened Def Con from 0.00689932 ++++++++++++++++++++++++to 0.00689932
Heightened Def Con from 0.00689932 ++++++++++++++++++++++++to 0.00689932
Heightened Def Con from 0.00689932 ++++++++++++++++++++++++to 0.00689932
Heightened Def Con from 0.00689932 ++++++++++++++++++++++++to 0.00689932
Heightened Def Con from 0.00689933 ++++++++++++++++++++++++to 0.00689933
Heightened Def Con from 0.00689933 ++++++++++++++++++++++++to 0.00689933
Heightened Def Con from 0.00689933 ++++++++++++++++++++++++to 0.00689933
Heightened Def Con from 0.00689933 ++++++++++++++++++++++++to 0.00689933
Heightened Def Con from 0.00689933 ++++++++++++++++++++++++to 0.00689933
Heightened Def Con from 0.00689934 ++++++++++++++++++++++++to 0.00689934
Heightened Def Con from 0.00689934 ++++++++++++++++++++++++to 0.00689934
Heightened Def Con from 0.00689934 ++++++++++++++++++++++++to 0.00689934
Heightened Def Con from 0.00689934 ++++++++++++++++++++++++to 0.00689934
Heightened Def Con from 0.00689934 ++++++++++++++++++++++++to 0.00689934
Heightened Def Con from 0.00689935 ++++++++++++++++++++++++to 0.00689935
Heightened Def Con from 0.00689935 ++++++++++++++++++++++++to 0.00689935
Heightened Def Con from 0.00689935 ++++++++++++++++++++++++to 0.00689935
Heightened Def Con from 0.00689935 ++++++++++++++++++++++++to 0.00689935
Heightened Def Con from 0.00689935 ++++++++++++++++++++++++to 0.00689935
Heightened Def Con from 0.00689935 ++++++++++++++++++++++++to 0.00689936
Heightened Def Con from 0.00689936 ++++++++++++++++++++++++to 0.00689936
Heightened Def Con from 0.00689936 ++++++++++++++++++++++++to 0.00689936
Heightened Def Con from 0.00689936 ++++++++++++++++++++++++to 0.00689936
Heightened Def Con from 0.00689936 ++++++++++++++++++++++++to 0.00689936
Heightened Def Con from 0.00689936 ++++++++++++++++++++++++to 0.00689937
Heightened Def Con from 0.00689937 ++++++++++++++++++++++++to 0.00689937
Heightened Def Con from 0.00689937 ++++++++++++++++++++++++to 0.00689937
Heightened Def Con from 0.00689937 ++++++++++++++++++++++++to 0.00689937
Heightened Def Con from 0.00689937 ++++++++++++++++++++++++to 0.00689937
Heightened Def Con from 0.00689937 ++++++++++++++++++++++++to 0.00689937
Heightened Def Con from 0.00689938 ++++++++++++++++++++++++to 0.00689938
Heightened Def Con from 0.00689938 ++++++++++++++++++++++++to 0.00689938
Heightened Def Con from 0.00689938 ++++++++++++++++++++++++to 0.00689938
Heightened Def Con from 0.00689938 ++++++++++++++++++++++++to 0.00689938
Heightened Def Con from 0.00689938 ++++++++++++++++++++++++to 0.00689938
Heightened Def Con from 0.00689939 ++++++++++++++++++++++++to 0.00689939
Heightened Def Con from 0.00689939 ++++++++++++++++++++++++to 0.00689939
Heightened Def Con from 0.00689939 ++++++++++++++++++++++++to 0.00689939
Heightened Def Con from 0.00689939 ++++++++++++++++++++++++to 0.00689939
Heightened Def Con from 0.00689939 ++++++++++++++++++++++++to 0.00689939
Heightened Def Con from 0.0068994 ++++++++++++++++++++++++to 0.0068994
Heightened Def Con from 0.0068994 ++++++++++++++++++++++++to 0.0068994
Heightened Def Con from 0.0068994 ++++++++++++++++++++++++to 0.0068994
Heightened Def Con from 0.0068994 ++++++++++++++++++++++++to 0.0068994
Heightened Def Con from 0.0068994 ++++++++++++++++++++++++to 0.0068994
Heightened Def Con from 0.0068994 ++++++++++++++++++++++++to 0.00689941
Heightened Def Con from 0.00689941 ++++++++++++++++++++++++to 0.00689941
Heightened Def Con from 0.00689941 ++++++++++++++++++++++++to 0.00689941
Heightened Def Con from 0.00689941 ++++++++++++++++++++++++to 0.00689941
Heightened Def Con from 0.00689941 ++++++++++++++++++++++++to 0.00689941
Heightened Def Con from 0.00689941 ++++++++++++++++++++++++to 0.00689942
Heightened Def Con from 0.00689942 ++++++++++++++++++++++++to 0.00689942
Heightened Def Con from 0.00689942 ++++++++++++++++++++++++to 0.00689942
Heightened Def Con from 0.00689942 ++++++++++++++++++++++++to 0.00689942
Heightened Def Con from 0.00689942 ++++++++++++++++++++++++to 0.00689942
Heightened Def Con from 0.00689942 ++++++++++++++++++++++++to 0.00689943
Heightened Def Con from 0.00689943 ++++++++++++++++++++++++to 0.00689943
Heightened Def Con from 0.00689943 ++++++++++++++++++++++++to 0.00689943
Heightened Def Con from 0.00689943 ++++++++++++++++++++++++to 0.00689943
Heightened Def Con from 0.00689943 ++++++++++++++++++++++++to 0.00689943
Heightened Def Con from 0.00689943 ++++++++++++++++++++++++to 0.00689943
Heightened Def Con from 0.00689944 ++++++++++++++++++++++++to 0.00689944
Heightened Def Con from 0.00689944 ++++++++++++++++++++++++to 0.00689944
Heightened Def Con from 0.00689944 ++++++++++++++++++++++++to 0.00689944
Heightened Def Con from 0.00689944 ++++++++++++++++++++++++to 0.00689944
Heightened Def Con from 0.00689944 ++++++++++++++++++++++++to 0.00689944
Heightened Def Con from 0.00689945 ++++++++++++++++++++++++to 0.00689945
Heightened Def Con from 0.00689945 ++++++++++++++++++++++++to 0.00689945
Heightened Def Con from 0.00689945 ++++++++++++++++++++++++to 0.00689945
Heightened Def Con from 0.00689945 ++++++++++++++++++++++++to 0.00689945
Heightened Def Con from 0.00689945 ++++++++++++++++++++++++to 0.00689945
Heightened Def Con from 0.00689945 ++++++++++++++++++++++++to 0.00689946
Heightened Def Con from 0.00689946 ++++++++++++++++++++++++to 0.00689946
Heightened Def Con from 0.00689946 ++++++++++++++++++++++++to 0.00689946
Heightened Def Con from 0.00689946 ++++++++++++++++++++++++to 0.00689946
Heightened Def Con from 0.00689946 ++++++++++++++++++++++++to 0.00689946
Heightened Def Con from 0.00689946 ++++++++++++++++++++++++to 0.00689947
Heightened Def Con from 0.00689947 ++++++++++++++++++++++++to 0.00689947
Heightened Def Con from 0.00689947 ++++++++++++++++++++++++to 0.00689947
Heightened Def Con from 0.00689947 ++++++++++++++++++++++++to 0.00689947
Heightened Def Con from 0.00689947 ++++++++++++++++++++++++to 0.00689947
Heightened Def Con from 0.00689947 ++++++++++++++++++++++++to 0.00689948
Heightened Def Con from 0.00689948 ++++++++++++++++++++++++to 0.00689948
Heightened Def Con from 0.00689948 ++++++++++++++++++++++++to 0.00689948
Heightened Def Con from 0.00689948 ++++++++++++++++++++++++to 0.00689948
Heightened Def Con from 0.00689948 ++++++++++++++++++++++++to 0.00689948
Heightened Def Con from 0.00689948 ++++++++++++++++++++++++to 0.00689948
Heightened Def Con from 0.00689949 ++++++++++++++++++++++++to 0.00689949
Heightened Def Con from 0.00689949 ++++++++++++++++++++++++to 0.00689949
Heightened Def Con from 0.00689949 ++++++++++++++++++++++++to 0.00689949
Heightened Def Con from 0.00689949 ++++++++++++++++++++++++to 0.00689949
Heightened Def Con from 0.00689949 ++++++++++++++++++++++++to 0.00689949
Heightened Def Con from 0.0068995 ++++++++++++++++++++++++to 0.0068995
Heightened Def Con from 0.0068995 ++++++++++++++++++++++++to 0.0068995
Heightened Def Con from 0.0068995 ++++++++++++++++++++++++to 0.0068995
Heightened Def Con from 0.0068995 ++++++++++++++++++++++++to 0.0068995
Heightened Def Con from 0.0068995 ++++++++++++++++++++++++to 0.0068995
Heightened Def Con from 0.0068995 ++++++++++++++++++++++++to 0.00689951
Heightened Def Con from 0.00689951 ++++++++++++++++++++++++to 0.00689951
Heightened Def Con from 0.00689951 ++++++++++++++++++++++++to 0.00689951
Heightened Def Con from 0.00689951 ++++++++++++++++++++++++to 0.00689951
Heightened Def Con from 0.00689951 ++++++++++++++++++++++++to 0.00689951
Heightened Def Con from 0.00689951 ++++++++++++++++++++++++to 0.00689952
Heightened Def Con from 0.00689952 ++++++++++++++++++++++++to 0.00689952
Heightened Def Con from 0.00689952 ++++++++++++++++++++++++to 0.00689952
Heightened Def Con from 0.00689952 ++++++++++++++++++++++++to 0.00689952
Heightened Def Con from 0.00689952 ++++++++++++++++++++++++to 0.00689952
Heightened Def Con from 0.00689952 ++++++++++++++++++++++++to 0.00689953
Heightened Def Con from 0.00689953 ++++++++++++++++++++++++to 0.00689953
Heightened Def Con from 0.00689953 ++++++++++++++++++++++++to 0.00689953
Heightened Def Con from 0.00689953 ++++++++++++++++++++++++to 0.00689953
Heightened Def Con from 0.00689953 ++++++++++++++++++++++++to 0.00689953
Heightened Def Con from 0.00689953 ++++++++++++++++++++++++to 0.00689953
Heightened Def Con from 0.00689954 ++++++++++++++++++++++++to 0.00689954
Heightened Def Con from 0.00689954 ++++++++++++++++++++++++to 0.00689954
Heightened Def Con from 0.00689954 ++++++++++++++++++++++++to 0.00689954
Heightened Def Con from 0.00689954 ++++++++++++++++++++++++to 0.00689954
Heightened Def Con from 0.00689954 ++++++++++++++++++++++++to 0.00689954
Heightened Def Con from 0.00689955 ++++++++++++++++++++++++to 0.00689955
Heightened Def Con from 0.00689955 ++++++++++++++++++++++++to 0.00689955
Heightened Def Con from 0.00689955 ++++++++++++++++++++++++to 0.00689955
Heightened Def Con from 0.00689955 ++++++++++++++++++++++++to 0.00689955
Heightened Def Con from 0.00689955 ++++++++++++++++++++++++to 0.00689955
Heightened Def Con from 0.00689955 ++++++++++++++++++++++++to 0.00689956
Heightened Def Con from 0.00689956 ++++++++++++++++++++++++to 0.00689956
Heightened Def Con from 0.00689956 ++++++++++++++++++++++++to 0.00689956
Heightened Def Con from 0.00689956 ++++++++++++++++++++++++to 0.00689956
Heightened Def Con from 0.00689956 ++++++++++++++++++++++++to 0.00689956
Heightened Def Con from 0.00689956 ++++++++++++++++++++++++to 0.00689957
Heightened Def Con from 0.00689957 ++++++++++++++++++++++++to 0.00689957
Heightened Def Con from 0.00689957 ++++++++++++++++++++++++to 0.00689957
Heightened Def Con from 0.00689957 ++++++++++++++++++++++++to 0.00689957
Heightened Def Con from 0.00689957 ++++++++++++++++++++++++to 0.00689957
Heightened Def Con from 0.00689957 ++++++++++++++++++++++++to 0.00689958
Heightened Def Con from 0.00689958 ++++++++++++++++++++++++to 0.00689958
Heightened Def Con from 0.00689958 ++++++++++++++++++++++++to 0.00689958
Heightened Def Con from 0.00689958 ++++++++++++++++++++++++to 0.00689958
Heightened Def Con from 0.00689958 ++++++++++++++++++++++++to 0.00689958
Heightened Def Con from 0.00689958 ++++++++++++++++++++++++to 0.00689958
Heightened Def Con from 0.00689959 ++++++++++++++++++++++++to 0.00689959
Heightened Def Con from 0.00689959 ++++++++++++++++++++++++to 0.00689959
Heightened Def Con from 0.00689959 ++++++++++++++++++++++++to 0.00689959
Heightened Def Con from 0.00689959 ++++++++++++++++++++++++to 0.00689959
Heightened Def Con from 0.00689959 ++++++++++++++++++++++++to 0.00689959
Heightened Def Con from 0.0068996 ++++++++++++++++++++++++to 0.0068996
Heightened Def Con from 0.0068996 ++++++++++++++++++++++++to 0.0068996
Heightened Def Con from 0.0068996 ++++++++++++++++++++++++to 0.0068996
Heightened Def Con from 0.0068996 ++++++++++++++++++++++++to 0.0068996
Heightened Def Con from 0.0068996 ++++++++++++++++++++++++to 0.0068996
Heightened Def Con from 0.0068996 ++++++++++++++++++++++++to 0.00689961
Heightened Def Con from 0.00689961 ++++++++++++++++++++++++to 0.00689961
Heightened Def Con from 0.00689961 ++++++++++++++++++++++++to 0.00689961
Heightened Def Con from 0.00689961 ++++++++++++++++++++++++to 0.00689961
Heightened Def Con from 0.00689961 ++++++++++++++++++++++++to 0.00689961
Heightened Def Con from 0.00689961 ++++++++++++++++++++++++to 0.00689962
Heightened Def Con from 0.00689962 ++++++++++++++++++++++++to 0.00689962
Heightened Def Con from 0.00689962 ++++++++++++++++++++++++to 0.00689962
Heightened Def Con from 0.00689962 ++++++++++++++++++++++++to 0.00689962
Heightened Def Con from 0.00689962 ++++++++++++++++++++++++to 0.00689962
Heightened Def Con from 0.00689962 ++++++++++++++++++++++++to 0.00689963
Heightened Def Con from 0.00689963 ++++++++++++++++++++++++to 0.00689963
Heightened Def Con from 0.00689963 ++++++++++++++++++++++++to 0.00689963
Heightened Def Con from 0.00689963 ++++++++++++++++++++++++to 0.00689963
Heightened Def Con from 0.00689963 ++++++++++++++++++++++++to 0.00689963
Heightened Def Con from 0.00689963 ++++++++++++++++++++++++to 0.00689963
Heightened Def Con from 0.00689964 ++++++++++++++++++++++++to 0.00689964
Heightened Def Con from 0.00689964 ++++++++++++++++++++++++to 0.00689964
Heightened Def Con from 0.00689964 ++++++++++++++++++++++++to 0.00689964
Heightened Def Con from 0.00689964 ++++++++++++++++++++++++to 0.00689964
Heightened Def Con from 0.00689964 ++++++++++++++++++++++++to 0.00689964
Heightened Def Con from 0.00689965 ++++++++++++++++++++++++to 0.00689965
Heightened Def Con from 0.00689965 ++++++++++++++++++++++++to 0.00689965
Heightened Def Con from 0.00689965 ++++++++++++++++++++++++to 0.00689965
Heightened Def Con from 0.00689965 ++++++++++++++++++++++++to 0.00689965
Heightened Def Con from 0.00689965 ++++++++++++++++++++++++to 0.00689965
Heightened Def Con from 0.00689965 ++++++++++++++++++++++++to 0.00689966
Heightened Def Con from 0.00689966 ++++++++++++++++++++++++to 0.00689966
Heightened Def Con from 0.00689966 ++++++++++++++++++++++++to 0.00689966
Heightened Def Con from 0.00689966 ++++++++++++++++++++++++to 0.00689966
Heightened Def Con from 0.00689966 ++++++++++++++++++++++++to 0.00689966
Heightened Def Con from 0.00689966 ++++++++++++++++++++++++to 0.00689967
Heightened Def Con from 0.00689967 ++++++++++++++++++++++++to 0.00689967
Heightened Def Con from 0.00689967 ++++++++++++++++++++++++to 0.00689967
Heightened Def Con from 0.00689967 ++++++++++++++++++++++++to 0.00689967
Heightened Def Con from 0.00689967 ++++++++++++++++++++++++to 0.00689967
Heightened Def Con from 0.00689967 ++++++++++++++++++++++++to 0.00689968
Heightened Def Con from 0.00689968 ++++++++++++++++++++++++to 0.00689968
Heightened Def Con from 0.00689968 ++++++++++++++++++++++++to 0.00689968
Heightened Def Con from 0.00689968 ++++++++++++++++++++++++to 0.00689968
Heightened Def Con from 0.00689968 ++++++++++++++++++++++++to 0.00689968
Heightened Def Con from 0.00689968 ++++++++++++++++++++++++to 0.00689968
Heightened Def Con from 0.00689969 ++++++++++++++++++++++++to 0.00689969
Heightened Def Con from 0.00689969 ++++++++++++++++++++++++to 0.00689969
Heightened Def Con from 0.00689969 ++++++++++++++++++++++++to 0.00689969
Heightened Def Con from 0.00689969 ++++++++++++++++++++++++to 0.00689969
Heightened Def Con from 0.00689969 ++++++++++++++++++++++++to 0.00689969
Heightened Def Con from 0.0068997 ++++++++++++++++++++++++to 0.0068997
Heightened Def Con from 0.0068997 ++++++++++++++++++++++++to 0.0068997
Heightened Def Con from 0.0068997 ++++++++++++++++++++++++to 0.0068997
Heightened Def Con from 0.0068997 ++++++++++++++++++++++++to 0.0068997
Heightened Def Con from 0.0068997 ++++++++++++++++++++++++to 0.0068997
Heightened Def Con from 0.0068997 ++++++++++++++++++++++++to 0.00689971
Heightened Def Con from 0.00689971 ++++++++++++++++++++++++to 0.00689971
Heightened Def Con from 0.00689971 ++++++++++++++++++++++++to 0.00689971
Heightened Def Con from 0.00689971 ++++++++++++++++++++++++to 0.00689971
Heightened Def Con from 0.00689971 ++++++++++++++++++++++++to 0.00689971
Heightened Def Con from 0.00689971 ++++++++++++++++++++++++to 0.00689972
Heightened Def Con from 0.00689972 ++++++++++++++++++++++++to 0.00689972
Heightened Def Con from 0.00689972 ++++++++++++++++++++++++to 0.00689972
Heightened Def Con from 0.00689972 ++++++++++++++++++++++++to 0.00689972
Heightened Def Con from 0.00689972 ++++++++++++++++++++++++to 0.00689972
Heightened Def Con from 0.00689972 ++++++++++++++++++++++++to 0.00689973
Heightened Def Con from 0.00689973 ++++++++++++++++++++++++to 0.00689973
Heightened Def Con from 0.00689973 ++++++++++++++++++++++++to 0.00689973
Heightened Def Con from 0.00689973 ++++++++++++++++++++++++to 0.00689973
Heightened Def Con from 0.00689973 ++++++++++++++++++++++++to 0.00689973
Heightened Def Con from 0.00689973 ++++++++++++++++++++++++to 0.00689973
Heightened Def Con from 0.00689974 ++++++++++++++++++++++++to 0.00689974
Heightened Def Con from 0.00689974 ++++++++++++++++++++++++to 0.00689974
Heightened Def Con from 0.00689974 ++++++++++++++++++++++++to 0.00689974
Heightened Def Con from 0.00689974 ++++++++++++++++++++++++to 0.00689974
Heightened Def Con from 0.00689974 ++++++++++++++++++++++++to 0.00689974
Heightened Def Con from 0.00689975 ++++++++++++++++++++++++to 0.00689975
Heightened Def Con from 0.00689975 ++++++++++++++++++++++++to 0.00689975
Heightened Def Con from 0.00689975 ++++++++++++++++++++++++to 0.00689975
Heightened Def Con from 0.00689975 ++++++++++++++++++++++++to 0.00689975
Heightened Def Con from 0.00689975 ++++++++++++++++++++++++to 0.00689975
Heightened Def Con from 0.00689975 ++++++++++++++++++++++++to 0.00689976
Heightened Def Con from 0.00689976 ++++++++++++++++++++++++to 0.00689976
Heightened Def Con from 0.00689976 ++++++++++++++++++++++++to 0.00689976
Heightened Def Con from 0.00689976 ++++++++++++++++++++++++to 0.00689976
Heightened Def Con from 0.00689976 ++++++++++++++++++++++++to 0.00689976
Heightened Def Con from 0.00689976 ++++++++++++++++++++++++to 0.00689977
Heightened Def Con from 0.00689977 ++++++++++++++++++++++++to 0.00689977
Heightened Def Con from 0.00689977 ++++++++++++++++++++++++to 0.00689977
Heightened Def Con from 0.00689977 ++++++++++++++++++++++++to 0.00689977
Heightened Def Con from 0.00689977 ++++++++++++++++++++++++to 0.00689977
Heightened Def Con from 0.00689977 ++++++++++++++++++++++++to 0.00689978
Heightened Def Con from 0.00689978 ++++++++++++++++++++++++to 0.00689978
Heightened Def Con from 0.00689978 ++++++++++++++++++++++++to 0.00689978
Heightened Def Con from 0.00689978 ++++++++++++++++++++++++to 0.00689978
Heightened Def Con from 0.00689978 ++++++++++++++++++++++++to 0.00689978
Heightened Def Con from 0.00689978 ++++++++++++++++++++++++to 0.00689978
Heightened Def Con from 0.00689979 ++++++++++++++++++++++++to 0.00689979
Heightened Def Con from 0.00689979 ++++++++++++++++++++++++to 0.00689979
Heightened Def Con from 0.00689979 ++++++++++++++++++++++++to 0.00689979
Heightened Def Con from 0.00689979 ++++++++++++++++++++++++to 0.00689979
Heightened Def Con from 0.00689979 ++++++++++++++++++++++++to 0.00689979
Heightened Def Con from 0.0068998 ++++++++++++++++++++++++to 0.0068998
Heightened Def Con from 0.0068998 ++++++++++++++++++++++++to 0.0068998
Heightened Def Con from 0.0068998 ++++++++++++++++++++++++to 0.0068998
Heightened Def Con from 0.0068998 ++++++++++++++++++++++++to 0.0068998
Heightened Def Con from 0.0068998 ++++++++++++++++++++++++to 0.0068998
Heightened Def Con from 0.00689981 ++++++++++++++++++++++++to 0.00689981
Heightened Def Con from 0.00689981 ++++++++++++++++++++++++to 0.00689981
Heightened Def Con from 0.00689981 ++++++++++++++++++++++++to 0.00689981
Heightened Def Con from 0.00689981 ++++++++++++++++++++++++to 0.00689981
Heightened Def Con from 0.00689981 ++++++++++++++++++++++++to 0.00689981
Heightened Def Con from 0.00689981 ++++++++++++++++++++++++to 0.00689982
Heightened Def Con from 0.00689982 ++++++++++++++++++++++++to 0.00689982
Heightened Def Con from 0.00689982 ++++++++++++++++++++++++to 0.00689982
Heightened Def Con from 0.00689982 ++++++++++++++++++++++++to 0.00689982
Heightened Def Con from 0.00689982 ++++++++++++++++++++++++to 0.00689982
Heightened Def Con from 0.00689982 ++++++++++++++++++++++++to 0.00689983
Heightened Def Con from 0.00689983 ++++++++++++++++++++++++to 0.00689983
Heightened Def Con from 0.00689983 ++++++++++++++++++++++++to 0.00689983
Heightened Def Con from 0.00689983 ++++++++++++++++++++++++to 0.00689983
Heightened Def Con from 0.00689983 ++++++++++++++++++++++++to 0.00689983
Heightened Def Con from 0.00689983 ++++++++++++++++++++++++to 0.00689983
Heightened Def Con from 0.00689984 ++++++++++++++++++++++++to 0.00689984
Heightened Def Con from 0.00689984 ++++++++++++++++++++++++to 0.00689984
Heightened Def Con from 0.00689984 ++++++++++++++++++++++++to 0.00689984
Heightened Def Con from 0.00689984 ++++++++++++++++++++++++to 0.00689984
Heightened Def Con from 0.00689984 ++++++++++++++++++++++++to 0.00689984
Heightened Def Con from 0.00689985 ++++++++++++++++++++++++to 0.00689985
Heightened Def Con from 0.00689985 ++++++++++++++++++++++++to 0.00689985
Heightened Def Con from 0.00689985 ++++++++++++++++++++++++to 0.00689985
Heightened Def Con from 0.00689985 ++++++++++++++++++++++++to 0.00689985
Heightened Def Con from 0.00689985 ++++++++++++++++++++++++to 0.00689985
Heightened Def Con from 0.00689986 ++++++++++++++++++++++++to 0.00689986
Heightened Def Con from 0.00689986 ++++++++++++++++++++++++to 0.00689986
Heightened Def Con from 0.00689986 ++++++++++++++++++++++++to 0.00689986
Heightened Def Con from 0.00689986 ++++++++++++++++++++++++to 0.00689986
Heightened Def Con from 0.00689986 ++++++++++++++++++++++++to 0.00689986
Heightened Def Con from 0.00689986 ++++++++++++++++++++++++to 0.00689987
Heightened Def Con from 0.00689987 ++++++++++++++++++++++++to 0.00689987
Heightened Def Con from 0.00689987 ++++++++++++++++++++++++to 0.00689987
Heightened Def Con from 0.00689987 ++++++++++++++++++++++++to 0.00689987
Heightened Def Con from 0.00689987 ++++++++++++++++++++++++to 0.00689987
Heightened Def Con from 0.00689987 ++++++++++++++++++++++++to 0.00689988
Heightened Def Con from 0.00689988 ++++++++++++++++++++++++to 0.00689988
Heightened Def Con from 0.00689988 ++++++++++++++++++++++++to 0.00689988
Heightened Def Con from 0.00689988 ++++++++++++++++++++++++to 0.00689988
Heightened Def Con from 0.00689988 ++++++++++++++++++++++++to 0.00689988
Heightened Def Con from 0.00689988 ++++++++++++++++++++++++to 0.00689988
Heightened Def Con from 0.00689989 ++++++++++++++++++++++++to 0.00689989
Heightened Def Con from 0.00689989 ++++++++++++++++++++++++to 0.00689989
Heightened Def Con from 0.00689989 ++++++++++++++++++++++++to 0.00689989
Heightened Def Con from 0.00689989 ++++++++++++++++++++++++to 0.00689989
Heightened Def Con from 0.00689989 ++++++++++++++++++++++++to 0.00689989
Heightened Def Con from 0.0068999 ++++++++++++++++++++++++to 0.0068999
Heightened Def Con from 0.0068999 ++++++++++++++++++++++++to 0.0068999
Heightened Def Con from 0.0068999 ++++++++++++++++++++++++to 0.0068999
Heightened Def Con from 0.0068999 ++++++++++++++++++++++++to 0.0068999
Heightened Def Con from 0.0068999 ++++++++++++++++++++++++to 0.0068999
Heightened Def Con from 0.00689991 ++++++++++++++++++++++++to 0.00689991
Heightened Def Con from 0.00689991 ++++++++++++++++++++++++to 0.00689991
Heightened Def Con from 0.00689991 ++++++++++++++++++++++++to 0.00689991
Heightened Def Con from 0.00689991 ++++++++++++++++++++++++to 0.00689991
Heightened Def Con from 0.00689991 ++++++++++++++++++++++++to 0.00689991
Heightened Def Con from 0.00689991 ++++++++++++++++++++++++to 0.00689992
Heightened Def Con from 0.00689992 ++++++++++++++++++++++++to 0.00689992
Heightened Def Con from 0.00689992 ++++++++++++++++++++++++to 0.00689992
Heightened Def Con from 0.00689992 ++++++++++++++++++++++++to 0.00689992
Heightened Def Con from 0.00689992 ++++++++++++++++++++++++to 0.00689992
Heightened Def Con from 0.00689992 ++++++++++++++++++++++++to 0.00689993
Heightened Def Con from 0.00689993 ++++++++++++++++++++++++to 0.00689993
Heightened Def Con from 0.00689993 ++++++++++++++++++++++++to 0.00689993
Heightened Def Con from 0.00689993 ++++++++++++++++++++++++to 0.00689993
Heightened Def Con from 0.00689993 ++++++++++++++++++++++++to 0.00689993
Heightened Def Con from 0.00689993 ++++++++++++++++++++++++to 0.00689993
Heightened Def Con from 0.00689994 ++++++++++++++++++++++++to 0.00689994
Heightened Def Con from 0.00689994 ++++++++++++++++++++++++to 0.00689994
Heightened Def Con from 0.00689994 ++++++++++++++++++++++++to 0.00689994
Heightened Def Con from 0.00689994 ++++++++++++++++++++++++to 0.00689994
Heightened Def Con from 0.00689994 ++++++++++++++++++++++++to 0.00689994
Heightened Def Con from 0.00689995 ++++++++++++++++++++++++to 0.00689995
Heightened Def Con from 0.00689995 ++++++++++++++++++++++++to 0.00689995
Heightened Def Con from 0.00689995 ++++++++++++++++++++++++to 0.00689995
Heightened Def Con from 0.00689995 ++++++++++++++++++++++++to 0.00689995
Heightened Def Con from 0.00689995 ++++++++++++++++++++++++to 0.00689995
Heightened Def Con from 0.00689996 ++++++++++++++++++++++++to 0.00689996
Heightened Def Con from 0.00689996 ++++++++++++++++++++++++to 0.00689996
Heightened Def Con from 0.00689996 ++++++++++++++++++++++++to 0.00689996
Heightened Def Con from 0.00689996 ++++++++++++++++++++++++to 0.00689996
Heightened Def Con from 0.00689996 ++++++++++++++++++++++++to 0.00689996
Heightened Def Con from 0.00689996 ++++++++++++++++++++++++to 0.00689997
Heightened Def Con from 0.00689997 ++++++++++++++++++++++++to 0.00689997
Heightened Def Con from 0.00689997 ++++++++++++++++++++++++to 0.00689997
Heightened Def Con from 0.00689997 ++++++++++++++++++++++++to 0.00689997
Heightened Def Con from 0.00689997 ++++++++++++++++++++++++to 0.00689997
Heightened Def Con from 0.00689997 ++++++++++++++++++++++++to 0.00689998
Heightened Def Con from 0.00689998 ++++++++++++++++++++++++to 0.00689998
Heightened Def Con from 0.00689998 ++++++++++++++++++++++++to 0.00689998
Heightened Def Con from 0.00689998 ++++++++++++++++++++++++to 0.00689998
Heightened Def Con from 0.00689998 ++++++++++++++++++++++++to 0.00689998
Heightened Def Con from 0.00689998 ++++++++++++++++++++++++to 0.00689998
Heightened Def Con from 0.00689999 ++++++++++++++++++++++++to 0.00689999
Heightened Def Con from 0.00689999 ++++++++++++++++++++++++to 0.00689999
Heightened Def Con from 0.00689999 ++++++++++++++++++++++++to 0.00689999
Heightened Def Con from 0.00689999 ++++++++++++++++++++++++to 0.00689999
Heightened Def Con from 0.00689999 ++++++++++++++++++++++++to 0.00689999
Heightened Def Con from 0.0069 ++++++++++++++++++++++++to 0.0069
Heightened Def Con from 0.0069 ++++++++++++++++++++++++to 0.0069
Heightened Def Con from 0.0069 ++++++++++++++++++++++++to 0.0069
Heightened Def Con from 0.0069 ++++++++++++++++++++++++to 0.0069
Heightened Def Con from 0.0069 ++++++++++++++++++++++++to 0.0069
Heightened Def Con from 0.00690001 ++++++++++++++++++++++++to 0.00690001
Heightened Def Con from 0.00690001 ++++++++++++++++++++++++to 0.00690001
Heightened Def Con from 0.00690001 ++++++++++++++++++++++++to 0.00690001
Heightened Def Con from 0.00690001 ++++++++++++++++++++++++to 0.00690001
Heightened Def Con from 0.00690001 ++++++++++++++++++++++++to 0.00690001
Heightened Def Con from 0.00690001 ++++++++++++++++++++++++to 0.00690002
Heightened Def Con from 0.00690002 ++++++++++++++++++++++++to 0.00690002
Heightened Def Con from 0.00690002 ++++++++++++++++++++++++to 0.00690002
Heightened Def Con from 0.00690002 ++++++++++++++++++++++++to 0.00690002
Heightened Def Con from 0.00690002 ++++++++++++++++++++++++to 0.00690002
Heightened Def Con from 0.00690002 ++++++++++++++++++++++++to 0.00690003
Heightened Def Con from 0.00690003 ++++++++++++++++++++++++to 0.00690003
Heightened Def Con from 0.00690003 ++++++++++++++++++++++++to 0.00690003
Heightened Def Con from 0.00690003 ++++++++++++++++++++++++to 0.00690003
Heightened Def Con from 0.00690003 ++++++++++++++++++++++++to 0.00690003
Heightened Def Con from 0.00690003 ++++++++++++++++++++++++to 0.00690004
Heightened Def Con from 0.00690004 ++++++++++++++++++++++++to 0.00690004
Heightened Def Con from 0.00690004 ++++++++++++++++++++++++to 0.00690004
Heightened Def Con from 0.00690004 ++++++++++++++++++++++++to 0.00690004
Heightened Def Con from 0.00690004 ++++++++++++++++++++++++to 0.00690004
Heightened Def Con from 0.00690004 ++++++++++++++++++++++++to 0.00690004
Heightened Def Con from 0.00690005 ++++++++++++++++++++++++to 0.00690005
Heightened Def Con from 0.00690005 ++++++++++++++++++++++++to 0.00690005
Heightened Def Con from 0.00690005 ++++++++++++++++++++++++to 0.00690005
Heightened Def Con from 0.00690005 ++++++++++++++++++++++++to 0.00690005
Heightened Def Con from 0.00690005 ++++++++++++++++++++++++to 0.00690005
Heightened Def Con from 0.00690006 ++++++++++++++++++++++++to 0.00690006
Heightened Def Con from 0.00690006 ++++++++++++++++++++++++to 0.00690006
Heightened Def Con from 0.00690006 ++++++++++++++++++++++++to 0.00690006
Heightened Def Con from 0.00690006 ++++++++++++++++++++++++to 0.00690006
Heightened Def Con from 0.00690006 ++++++++++++++++++++++++to 0.00690006
Heightened Def Con from 0.00690006 ++++++++++++++++++++++++to 0.00690007
Heightened Def Con from 0.00690007 ++++++++++++++++++++++++to 0.00690007
Heightened Def Con from 0.00690007 ++++++++++++++++++++++++to 0.00690007
Heightened Def Con from 0.00690007 ++++++++++++++++++++++++to 0.00690007
Heightened Def Con from 0.00690007 ++++++++++++++++++++++++to 0.00690007
Heightened Def Con from 0.00690007 ++++++++++++++++++++++++to 0.00690008
Heightened Def Con from 0.00690008 ++++++++++++++++++++++++to 0.00690008
Heightened Def Con from 0.00690008 ++++++++++++++++++++++++to 0.00690008
Heightened Def Con from 0.00690008 ++++++++++++++++++++++++to 0.00690008
Heightened Def Con from 0.00690008 ++++++++++++++++++++++++to 0.00690008
Heightened Def Con from 0.00690008 ++++++++++++++++++++++++to 0.00690009
Heightened Def Con from 0.00690009 ++++++++++++++++++++++++to 0.00690009
Heightened Def Con from 0.00690009 ++++++++++++++++++++++++to 0.00690009
Heightened Def Con from 0.00690009 ++++++++++++++++++++++++to 0.00690009
Heightened Def Con from 0.00690009 ++++++++++++++++++++++++to 0.00690009
Heightened Def Con from 0.00690009 ++++++++++++++++++++++++to 0.00690009
Heightened Def Con from 0.0069001 ++++++++++++++++++++++++to 0.0069001
Heightened Def Con from 0.0069001 ++++++++++++++++++++++++to 0.0069001
Heightened Def Con from 0.0069001 ++++++++++++++++++++++++to 0.0069001
Heightened Def Con from 0.0069001 ++++++++++++++++++++++++to 0.0069001
Heightened Def Con from 0.0069001 ++++++++++++++++++++++++to 0.0069001
Heightened Def Con from 0.00690011 ++++++++++++++++++++++++to 0.00690011
Heightened Def Con from 0.00690011 ++++++++++++++++++++++++to 0.00690011
Heightened Def Con from 0.00690011 ++++++++++++++++++++++++to 0.00690011
Heightened Def Con from 0.00690011 ++++++++++++++++++++++++to 0.00690011
Heightened Def Con from 0.00690011 ++++++++++++++++++++++++to 0.00690011
Heightened Def Con from 0.00690011 ++++++++++++++++++++++++to 0.00690012
Heightened Def Con from 0.00690012 ++++++++++++++++++++++++to 0.00690012
Heightened Def Con from 0.00690012 ++++++++++++++++++++++++to 0.00690012
Heightened Def Con from 0.00690012 ++++++++++++++++++++++++to 0.00690012
Heightened Def Con from 0.00690012 ++++++++++++++++++++++++to 0.00690012
Heightened Def Con from 0.00690012 ++++++++++++++++++++++++to 0.00690013
Heightened Def Con from 0.00690013 ++++++++++++++++++++++++to 0.00690013
Heightened Def Con from 0.00690013 ++++++++++++++++++++++++to 0.00690013
Heightened Def Con from 0.00690013 ++++++++++++++++++++++++to 0.00690013
Heightened Def Con from 0.00690013 ++++++++++++++++++++++++to 0.00690013
Heightened Def Con from 0.00690013 ++++++++++++++++++++++++to 0.00690014
Heightened Def Con from 0.00690014 ++++++++++++++++++++++++to 0.00690014
Heightened Def Con from 0.00690014 ++++++++++++++++++++++++to 0.00690014
Heightened Def Con from 0.00690014 ++++++++++++++++++++++++to 0.00690014
Heightened Def Con from 0.00690014 ++++++++++++++++++++++++to 0.00690014
Heightened Def Con from 0.00690014 ++++++++++++++++++++++++to 0.00690014
Heightened Def Con from 0.00690015 ++++++++++++++++++++++++to 0.00690015
Heightened Def Con from 0.00690015 ++++++++++++++++++++++++to 0.00690015
Heightened Def Con from 0.00690015 ++++++++++++++++++++++++to 0.00690015
Heightened Def Con from 0.00690015 ++++++++++++++++++++++++to 0.00690015
Heightened Def Con from 0.00690015 ++++++++++++++++++++++++to 0.00690015
Heightened Def Con from 0.00690016 ++++++++++++++++++++++++to 0.00690016
Heightened Def Con from 0.00690016 ++++++++++++++++++++++++to 0.00690016
Heightened Def Con from 0.00690016 ++++++++++++++++++++++++to 0.00690016
Heightened Def Con from 0.00690016 ++++++++++++++++++++++++to 0.00690016
Heightened Def Con from 0.00690016 ++++++++++++++++++++++++to 0.00690016
Heightened Def Con from 0.00690016 ++++++++++++++++++++++++to 0.00690017
Heightened Def Con from 0.00690017 ++++++++++++++++++++++++to 0.00690017
Heightened Def Con from 0.00690017 ++++++++++++++++++++++++to 0.00690017
Heightened Def Con from 0.00690017 ++++++++++++++++++++++++to 0.00690017
Heightened Def Con from 0.00690017 ++++++++++++++++++++++++to 0.00690017
Heightened Def Con from 0.00690017 ++++++++++++++++++++++++to 0.00690018
Heightened Def Con from 0.00690018 ++++++++++++++++++++++++to 0.00690018
Heightened Def Con from 0.00690018 ++++++++++++++++++++++++to 0.00690018
Heightened Def Con from 0.00690018 ++++++++++++++++++++++++to 0.00690018
Heightened Def Con from 0.00690018 ++++++++++++++++++++++++to 0.00690018
Heightened Def Con from 0.00690018 ++++++++++++++++++++++++to 0.00690019
Heightened Def Con from 0.00690019 ++++++++++++++++++++++++to 0.00690019
Heightened Def Con from 0.00690019 ++++++++++++++++++++++++to 0.00690019
Heightened Def Con from 0.00690019 ++++++++++++++++++++++++to 0.00690019
Heightened Def Con from 0.00690019 ++++++++++++++++++++++++to 0.00690019
Heightened Def Con from 0.00690019 ++++++++++++++++++++++++to 0.00690019
Heightened Def Con from 0.0069002 ++++++++++++++++++++++++to 0.0069002
Heightened Def Con from 0.0069002 ++++++++++++++++++++++++to 0.0069002
Heightened Def Con from 0.0069002 ++++++++++++++++++++++++to 0.0069002
Heightened Def Con from 0.0069002 ++++++++++++++++++++++++to 0.0069002
Heightened Def Con from 0.0069002 ++++++++++++++++++++++++to 0.0069002
Heightened Def Con from 0.00690021 ++++++++++++++++++++++++to 0.00690021
Heightened Def Con from 0.00690021 ++++++++++++++++++++++++to 0.00690021
Heightened Def Con from 0.00690021 ++++++++++++++++++++++++to 0.00690021
Heightened Def Con from 0.00690021 ++++++++++++++++++++++++to 0.00690021
Heightened Def Con from 0.00690021 ++++++++++++++++++++++++to 0.00690021
Heightened Def Con from 0.00690021 ++++++++++++++++++++++++to 0.00690022
Heightened Def Con from 0.00690022 ++++++++++++++++++++++++to 0.00690022
Heightened Def Con from 0.00690022 ++++++++++++++++++++++++to 0.00690022
Heightened Def Con from 0.00690022 ++++++++++++++++++++++++to 0.00690022
Heightened Def Con from 0.00690022 ++++++++++++++++++++++++to 0.00690022
Heightened Def Con from 0.00690022 ++++++++++++++++++++++++to 0.00690023
Heightened Def Con from 0.00690023 ++++++++++++++++++++++++to 0.00690023
Heightened Def Con from 0.00690023 ++++++++++++++++++++++++to 0.00690023
Heightened Def Con from 0.00690023 ++++++++++++++++++++++++to 0.00690023
Heightened Def Con from 0.00690023 ++++++++++++++++++++++++to 0.00690023
Heightened Def Con from 0.00690023 ++++++++++++++++++++++++to 0.00690024
Heightened Def Con from 0.00690024 ++++++++++++++++++++++++to 0.00690024
Heightened Def Con from 0.00690024 ++++++++++++++++++++++++to 0.00690024
Heightened Def Con from 0.00690024 ++++++++++++++++++++++++to 0.00690024
Heightened Def Con from 0.00690024 ++++++++++++++++++++++++to 0.00690024
Heightened Def Con from 0.00690024 ++++++++++++++++++++++++to 0.00690024
Heightened Def Con from 0.00690025 ++++++++++++++++++++++++to 0.00690025
Heightened Def Con from 0.00690025 ++++++++++++++++++++++++to 0.00690025
Heightened Def Con from 0.00690025 ++++++++++++++++++++++++to 0.00690025
Heightened Def Con from 0.00690025 ++++++++++++++++++++++++to 0.00690025
Heightened Def Con from 0.00690025 ++++++++++++++++++++++++to 0.00690025
Heightened Def Con from 0.00690026 ++++++++++++++++++++++++to 0.00690026
Heightened Def Con from 0.00690026 ++++++++++++++++++++++++to 0.00690026
Heightened Def Con from 0.00690026 ++++++++++++++++++++++++to 0.00690026
Heightened Def Con from 0.00690026 ++++++++++++++++++++++++to 0.00690026
Heightened Def Con from 0.00690026 ++++++++++++++++++++++++to 0.00690026
Heightened Def Con from 0.00690026 ++++++++++++++++++++++++to 0.00690027
Heightened Def Con from 0.00690027 ++++++++++++++++++++++++to 0.00690027
Heightened Def Con from 0.00690027 ++++++++++++++++++++++++to 0.00690027
Heightened Def Con from 0.00690027 ++++++++++++++++++++++++to 0.00690027
Heightened Def Con from 0.00690027 ++++++++++++++++++++++++to 0.00690027
Heightened Def Con from 0.00690027 ++++++++++++++++++++++++to 0.00690028
Heightened Def Con from 0.00690028 ++++++++++++++++++++++++to 0.00690028
Heightened Def Con from 0.00690028 ++++++++++++++++++++++++to 0.00690028
Heightened Def Con from 0.00690028 ++++++++++++++++++++++++to 0.00690028
Heightened Def Con from 0.00690028 ++++++++++++++++++++++++to 0.00690028
Heightened Def Con from 0.00690028 ++++++++++++++++++++++++to 0.00690029
Heightened Def Con from 0.00690029 ++++++++++++++++++++++++to 0.00690029
Heightened Def Con from 0.00690029 ++++++++++++++++++++++++to 0.00690029
Heightened Def Con from 0.00690029 ++++++++++++++++++++++++to 0.00690029
Heightened Def Con from 0.00690029 ++++++++++++++++++++++++to 0.00690029
Heightened Def Con from 0.00690029 ++++++++++++++++++++++++to 0.00690029
Heightened Def Con from 0.0069003 ++++++++++++++++++++++++to 0.0069003
Heightened Def Con from 0.0069003 ++++++++++++++++++++++++to 0.0069003
Heightened Def Con from 0.0069003 ++++++++++++++++++++++++to 0.0069003
Heightened Def Con from 0.0069003 ++++++++++++++++++++++++to 0.0069003
Heightened Def Con from 0.0069003 ++++++++++++++++++++++++to 0.0069003
[...]
Heightened Def Con from 0.00690802 ++++++++++++++++++++++++to 0.00690802
Heightened Def Con from 0.00690802 ++++++++++++++++++++++++to 0.00690802
Heightened Def Con from 0.00690803 ++++++++++++++++++++++++to 0.00690803
Heightened Def Con from 0.00690803 ++++++++++++++++++++++++to 0.00690803
Heightened Def Con from 0.00690803 ++++++++++++++++++++++++to 0.00690803
Heightened Def Con from 0.00690803 ++++++++++++++++++++++++to 0.00690803
Heightened Def Con from 0.00690803 ++++++++++++++++++++++++to 0.00690803
Heightened Def Con from 0.00690804 ++++++++++++++++++++++++to 0.00690804
Heightened Def Con from 0.00690804 ++++++++++++++++++++++++to 0.00690804
Heightened Def Con from 0.00690804 ++++++++++++++++++++++++to 0.00690804
Heightened Def Con from 0.00690804 ++++++++++++++++++++++++to 0.00690804
Heightened Def Con from 0.00690804 ++++++++++++++++++++++++to 0.00690804
Heightened Def Con from 0.00690805 ++++++++++++++++++++++++to 0.00690805
Heightened Def Con from 0.00690805 ++++++++++++++++++++++++to 0.00690805
Heightened Def Con from 0.00690805 ++++++++++++++++++++++++to 0.00690805
Heightened Def Con from 0.00690805 ++++++++++++++++++++++++to 0.00690805
Heightened Def Con from 0.00690805 ++++++++++++++++++++++++to 0.00690805
Heightened Def Con from 0.00690805 ++++++++++++++++++++++++to 0.00690806
Heightened Def Con from 0.00690806 ++++++++++++++++++++++++to 0.00690806
Heightened Def Con from 0.00690806 ++++++++++++++++++++++++to 0.00690806
Heightened Def Con from 0.00690806 ++++++++++++++++++++++++to 0.00690806
Heightened Def Con from 0.00690806 ++++++++++++++++++++++++to 0.00690806
Heightened Def Con from 0.00690806 ++++++++++++++++++++++++to 0.00690807
Heightened Def Con from 0.00690807 ++++++++++++++++++++++++to 0.00690807
Heightened Def Con from 0.00690807 ++++++++++++++++++++++++to 0.00690807
Heightened Def Con from 0.00690807 ++++++++++++++++++++++++to 0.00690807
Heightened Def Con from 0.00690807 ++++++++++++++++++++++++to 0.00690807
Heightened Def Con from 0.00690807 ++++++++++++++++++++++++to 0.00690807
Heightened Def Con from 0.00690808 ++++++++++++++++++++++++to 0.00690808
Heightened Def Con from 0.00690808 ++++++++++++++++++++++++to 0.00690808
Heightened Def Con from 0.00690808 ++++++++++++++++++++++++to 0.00690808
Heightened Def Con from 0.00690808 ++++++++++++++++++++++++to 0.00690808
Heightened Def Con from 0.00690808 ++++++++++++++++++++++++to 0.00690808
Heightened Def Con from 0.00690809 ++++++++++++++++++++++++to 0.00690809
Heightened Def Con from 0.00690809 ++++++++++++++++++++++++to 0.00690809
Heightened Def Con from 0.00690809 ++++++++++++++++++++++++to 0.00690809
Heightened Def Con from 0.00690809 ++++++++++++++++++++++++to 0.00690809
Heightened Def Con from 0.00690809 ++++++++++++++++++++++++to 0.00690809
Heightened Def Con from 0.0069081 ++++++++++++++++++++++++to 0.0069081
Heightened Def Con from 0.0069081 ++++++++++++++++++++++++to 0.0069081
Heightened Def Con from 0.0069081 ++++++++++++++++++++++++to 0.0069081
Heightened Def Con from 0.0069081 ++++++++++++++++++++++++to 0.0069081
Heightened Def Con from 0.0069081 ++++++++++++++++++++++++to 0.0069081
Heightened Def Con from 0.0069081 ++++++++++++++++++++++++to 0.00690811
Heightened Def Con from 0.00690811 ++++++++++++++++++++++++to 0.00690811
Heightened Def Con from 0.00690811 ++++++++++++++++++++++++to 0.00690811
Heightened Def Con from 0.00690811 ++++++++++++++++++++++++to 0.00690811
Heightened Def Con from 0.00690811 ++++++++++++++++++++++++to 0.00690811
Heightened Def Con from 0.00690811 ++++++++++++++++++++++++to 0.00690812
Heightened Def Con from 0.00690812 ++++++++++++++++++++++++to 0.00690812
Heightened Def Con from 0.00690812 ++++++++++++++++++++++++to 0.00690812
Heightened Def Con from 0.00690812 ++++++++++++++++++++++++to 0.00690812
Heightened Def Con from 0.00690812 ++++++++++++++++++++++++to 0.00690812
Heightened Def Con from 0.00690812 ++++++++++++++++++++++++to 0.00690813
Heightened Def Con from 0.00690813 ++++++++++++++++++++++++to 0.00690813
Heightened Def Con from 0.00690813 ++++++++++++++++++++++++to 0.00690813
Heightened Def Con from 0.00690813 ++++++++++++++++++++++++to 0.00690813
Heightened Def Con from 0.00690813 ++++++++++++++++++++++++to 0.00690813
Heightened Def Con from 0.00690813 ++++++++++++++++++++++++to 0.00690813
Heightened Def Con from 0.00690814 ++++++++++++++++++++++++to 0.00690814
Heightened Def Con from 0.00690814 ++++++++++++++++++++++++to 0.00690814
Heightened Def Con from 0.00690814 ++++++++++++++++++++++++to 0.00690814
Heightened Def Con from 0.00690814 ++++++++++++++++++++++++to 0.00690814
Heightened Def Con from 0.00690814 ++++++++++++++++++++++++to 0.00690814
Heightened Def Con from 0.00690815 ++++++++++++++++++++++++to 0.00690815
Heightened Def Con from 0.00690815 ++++++++++++++++++++++++to 0.00690815
Heightened Def Con from 0.00690815 ++++++++++++++++++++++++to 0.00690815
Heightened Def Con from 0.00690815 ++++++++++++++++++++++++to 0.00690815
Heightened Def Con from 0.00690815 ++++++++++++++++++++++++to 0.00690815
Heightened Def Con from 0.00690815 ++++++++++++++++++++++++to 0.00690816
Heightened Def Con from 0.00690816 ++++++++++++++++++++++++to 0.00690816
Heightened Def Con from 0.00690816 ++++++++++++++++++++++++to 0.00690816
Heightened Def Con from 0.00690816 ++++++++++++++++++++++++to 0.00690816
Heightened Def Con from 0.00690816 ++++++++++++++++++++++++to 0.00690816
Heightened Def Con from 0.00690816 ++++++++++++++++++++++++to 0.00690817
Heightened Def Con from 0.00690817 ++++++++++++++++++++++++to 0.00690817
Heightened Def Con from 0.00690817 ++++++++++++++++++++++++to 0.00690817
Heightened Def Con from 0.00690817 ++++++++++++++++++++++++to 0.00690817
Heightened Def Con from 0.00690817 ++++++++++++++++++++++++to 0.00690817
Heightened Def Con from 0.00690817 ++++++++++++++++++++++++to 0.00690818
Heightened Def Con from 0.00690818 ++++++++++++++++++++++++to 0.00690818
Heightened Def Con from 0.00690818 ++++++++++++++++++++++++to 0.00690818
Heightened Def Con from 0.00690818 ++++++++++++++++++++++++to 0.00690818
Heightened Def Con from 0.00690818 ++++++++++++++++++++++++to 0.00690818
Heightened Def Con from 0.00690818 ++++++++++++++++++++++++to 0.00690818
Heightened Def Con from 0.00690819 ++++++++++++++++++++++++to 0.00690819
Heightened Def Con from 0.00690819 ++++++++++++++++++++++++to 0.00690819
Heightened Def Con from 0.00690819 ++++++++++++++++++++++++to 0.00690819
Heightened Def Con from 0.00690819 ++++++++++++++++++++++++to 0.00690819
Heightened Def Con from 0.00690819 ++++++++++++++++++++++++to 0.00690819
Heightened Def Con from 0.0069082 ++++++++++++++++++++++++to 0.0069082
Heightened Def Con from 0.0069082 ++++++++++++++++++++++++to 0.0069082
Heightened Def Con from 0.0069082 ++++++++++++++++++++++++to 0.0069082
Heightened Def Con from 0.0069082 ++++++++++++++++++++++++to 0.0069082
Heightened Def Con from 0.0069082 ++++++++++++++++++++++++to 0.0069082
Heightened Def Con from 0.0069082 ++++++++++++++++++++++++to 0.00690821
Heightened Def Con from 0.00690821 ++++++++++++++++++++++++to 0.00690821
Heightened Def Con from 0.00690821 ++++++++++++++++++++++++to 0.00690821
Heightened Def Con from 0.00690821 ++++++++++++++++++++++++to 0.00690821
Heightened Def Con from 0.00690821 ++++++++++++++++++++++++to 0.00690821
Heightened Def Con from 0.00690821 ++++++++++++++++++++++++to 0.00690822
Heightened Def Con from 0.00690822 ++++++++++++++++++++++++to 0.00690822
Heightened Def Con from 0.00690822 ++++++++++++++++++++++++to 0.00690822
Heightened Def Con from 0.00690822 ++++++++++++++++++++++++to 0.00690822
Heightened Def Con from 0.00690822 ++++++++++++++++++++++++to 0.00690822
Heightened Def Con from 0.00690822 ++++++++++++++++++++++++to 0.00690823
Heightened Def Con from 0.00690823 ++++++++++++++++++++++++to 0.00690823
Heightened Def Con from 0.00690823 ++++++++++++++++++++++++to 0.00690823
Heightened Def Con from 0.00690823 ++++++++++++++++++++++++to 0.00690823
Heightened Def Con from 0.00690823 ++++++++++++++++++++++++to 0.00690823
Heightened Def Con from 0.00690823 ++++++++++++++++++++++++to 0.00690823
Heightened Def Con from 0.00690824 ++++++++++++++++++++++++to 0.00690824
Heightened Def Con from 0.00690824 ++++++++++++++++++++++++to 0.00690824
Heightened Def Con from 0.00690824 ++++++++++++++++++++++++to 0.00690824
Heightened Def Con from 0.00690824 ++++++++++++++++++++++++to 0.00690824
Heightened Def Con from 0.00690824 ++++++++++++++++++++++++to 0.00690824
Heightened Def Con from 0.00690825 ++++++++++++++++++++++++to 0.00690825
Heightened Def Con from 0.00690825 ++++++++++++++++++++++++to 0.00690825
Heightened Def Con from 0.00690825 ++++++++++++++++++++++++to 0.00690825
Heightened Def Con from 0.00690825 ++++++++++++++++++++++++to 0.00690825
Heightened Def Con from 0.00690825 ++++++++++++++++++++++++to 0.00690825
Heightened Def Con from 0.00690825 ++++++++++++++++++++++++to 0.00690826
Heightened Def Con from 0.00690826 ++++++++++++++++++++++++to 0.00690826
Heightened Def Con from 0.00690826 ++++++++++++++++++++++++to 0.00690826
Heightened Def Con from 0.00690826 ++++++++++++++++++++++++to 0.00690826
Heightened Def Con from 0.00690826 ++++++++++++++++++++++++to 0.00690826
Heightened Def Con from 0.00690826 ++++++++++++++++++++++++to 0.00690827
Heightened Def Con from 0.00690827 ++++++++++++++++++++++++to 0.00690827
Heightened Def Con from 0.00690827 ++++++++++++++++++++++++to 0.00690827
Heightened Def Con from 0.00690827 ++++++++++++++++++++++++to 0.00690827
Heightened Def Con from 0.00690827 ++++++++++++++++++++++++to 0.00690827
Heightened Def Con from 0.00690827 ++++++++++++++++++++++++to 0.00690828
Heightened Def Con from 0.00690828 ++++++++++++++++++++++++to 0.00690828
Heightened Def Con from 0.00690828 ++++++++++++++++++++++++to 0.00690828
Heightened Def Con from 0.00690828 ++++++++++++++++++++++++to 0.00690828
Heightened Def Con from 0.00690828 ++++++++++++++++++++++++to 0.00690828
Heightened Def Con from 0.00690828 ++++++++++++++++++++++++to 0.00690828
Heightened Def Con from 0.00690829 ++++++++++++++++++++++++to 0.00690829
Heightened Def Con from 0.00690829 ++++++++++++++++++++++++to 0.00690829
Heightened Def Con from 0.00690829 ++++++++++++++++++++++++to 0.00690829
Heightened Def Con from 0.00690829 ++++++++++++++++++++++++to 0.00690829
Heightened Def Con from 0.00690829 ++++++++++++++++++++++++to 0.00690829
Heightened Def Con from 0.0069083 ++++++++++++++++++++++++to 0.0069083
Heightened Def Con from 0.0069083 ++++++++++++++++++++++++to 0.0069083
Heightened Def Con from 0.0069083 ++++++++++++++++++++++++to 0.0069083
Heightened Def Con from 0.0069083 ++++++++++++++++++++++++to 0.0069083
Heightened Def Con from 0.0069083 ++++++++++++++++++++++++to 0.0069083
Heightened Def Con from 0.0069083 ++++++++++++++++++++++++to 0.00690831
Heightened Def Con from 0.00690831 ++++++++++++++++++++++++to 0.00690831
Heightened Def Con from 0.00690831 ++++++++++++++++++++++++to 0.00690831
Heightened Def Con from 0.00690831 ++++++++++++++++++++++++to 0.00690831
Heightened Def Con from 0.00690831 ++++++++++++++++++++++++to 0.00690831
Heightened Def Con from 0.00690831 ++++++++++++++++++++++++to 0.00690832
Heightened Def Con from 0.00690832 ++++++++++++++++++++++++to 0.00690832
Heightened Def Con from 0.00690832 ++++++++++++++++++++++++to 0.00690832
Heightened Def Con from 0.00690832 ++++++++++++++++++++++++to 0.00690832
Heightened Def Con from 0.00690832 ++++++++++++++++++++++++to 0.00690832
Heightened Def Con from 0.00690832 ++++++++++++++++++++++++to 0.00690833
Heightened Def Con from 0.00690833 ++++++++++++++++++++++++to 0.00690833
Heightened Def Con from 0.00690833 ++++++++++++++++++++++++to 0.00690833
Heightened Def Con from 0.00690833 ++++++++++++++++++++++++to 0.00690833
Heightened Def Con from 0.00690833 ++++++++++++++++++++++++to 0.00690833
Heightened Def Con from 0.00690833 ++++++++++++++++++++++++to 0.00690833
Heightened Def Con from 0.00690834 ++++++++++++++++++++++++to 0.00690834
Heightened Def Con from 0.00690834 ++++++++++++++++++++++++to 0.00690834
Heightened Def Con from 0.00690834 ++++++++++++++++++++++++to 0.00690834
Heightened Def Con from 0.00690834 ++++++++++++++++++++++++to 0.00690834
Heightened Def Con from 0.00690834 ++++++++++++++++++++++++to 0.00690834
Heightened Def Con from 0.00690835 ++++++++++++++++++++++++to 0.00690835
Heightened Def Con from 0.00690835 ++++++++++++++++++++++++to 0.00690835
Heightened Def Con from 0.00690835 ++++++++++++++++++++++++to 0.00690835
Heightened Def Con from 0.00690835 ++++++++++++++++++++++++to 0.00690835
Heightened Def Con from 0.00690835 ++++++++++++++++++++++++to 0.00690835
Heightened Def Con from 0.00690835 ++++++++++++++++++++++++to 0.00690836
Heightened Def Con from 0.00690836 ++++++++++++++++++++++++to 0.00690836
Heightened Def Con from 0.00690836 ++++++++++++++++++++++++to 0.00690836
Heightened Def Con from 0.00690836 ++++++++++++++++++++++++to 0.00690836
Heightened Def Con from 0.00690836 ++++++++++++++++++++++++to 0.00690836
Heightened Def Con from 0.00690836 ++++++++++++++++++++++++to 0.00690837
Heightened Def Con from 0.00690837 ++++++++++++++++++++++++to 0.00690837
Heightened Def Con from 0.00690837 ++++++++++++++++++++++++to 0.00690837
Heightened Def Con from 0.00690837 ++++++++++++++++++++++++to 0.00690837
Heightened Def Con from 0.00690837 ++++++++++++++++++++++++to 0.00690837
Heightened Def Con from 0.00690837 ++++++++++++++++++++++++to 0.00690838
Heightened Def Con from 0.00690838 ++++++++++++++++++++++++to 0.00690838
Heightened Def Con from 0.00690838 ++++++++++++++++++++++++to 0.00690838
Heightened Def Con from 0.00690838 ++++++++++++++++++++++++to 0.00690838
Heightened Def Con from 0.00690838 ++++++++++++++++++++++++to 0.00690838
Heightened Def Con from 0.00690838 ++++++++++++++++++++++++to 0.00690838
Heightened Def Con from 0.00690839 ++++++++++++++++++++++++to 0.00690839
Heightened Def Con from 0.00690839 ++++++++++++++++++++++++to 0.00690839
Heightened Def Con from 0.00690839 ++++++++++++++++++++++++to 0.00690839
Heightened Def Con from 0.00690839 ++++++++++++++++++++++++to 0.00690839
Heightened Def Con from 0.00690839 ++++++++++++++++++++++++to 0.00690839
Heightened Def Con from 0.0069084 ++++++++++++++++++++++++to 0.0069084
Heightened Def Con from 0.0069084 ++++++++++++++++++++++++to 0.0069084
Heightened Def Con from 0.0069084 ++++++++++++++++++++++++to 0.0069084
Heightened Def Con from 0.0069084 ++++++++++++++++++++++++to 0.0069084
Heightened Def Con from 0.0069084 ++++++++++++++++++++++++to 0.0069084
Heightened Def Con from 0.0069084 ++++++++++++++++++++++++to 0.00690841
Heightened Def Con from 0.00690841 ++++++++++++++++++++++++to 0.00690841
Heightened Def Con from 0.00690841 ++++++++++++++++++++++++to 0.00690841
Heightened Def Con from 0.00690841 ++++++++++++++++++++++++to 0.00690841
Heightened Def Con from 0.00690841 ++++++++++++++++++++++++to 0.00690841
Heightened Def Con from 0.00690841 ++++++++++++++++++++++++to 0.00690842
Heightened Def Con from 0.00690842 ++++++++++++++++++++++++to 0.00690842
Heightened Def Con from 0.00690842 ++++++++++++++++++++++++to 0.00690842
Heightened Def Con from 0.00690842 ++++++++++++++++++++++++to 0.00690842
Heightened Def Con from 0.00690842 ++++++++++++++++++++++++to 0.00690842
Heightened Def Con from 0.00690842 ++++++++++++++++++++++++to 0.00690843
Heightened Def Con from 0.00690843 ++++++++++++++++++++++++to 0.00690843
Heightened Def Con from 0.00690843 ++++++++++++++++++++++++to 0.00690843
Heightened Def Con from 0.00690843 ++++++++++++++++++++++++to 0.00690843
Heightened Def Con from 0.00690843 ++++++++++++++++++++++++to 0.00690843
Heightened Def Con from 0.00690843 ++++++++++++++++++++++++to 0.00690843
Heightened Def Con from 0.00690844 ++++++++++++++++++++++++to 0.00690844
Heightened Def Con from 0.00690844 ++++++++++++++++++++++++to 0.00690844
Heightened Def Con from 0.00690844 ++++++++++++++++++++++++to 0.00690844
Heightened Def Con from 0.00690844 ++++++++++++++++++++++++to 0.00690844
Heightened Def Con from 0.00690844 ++++++++++++++++++++++++to 0.00690844
Heightened Def Con from 0.00690845 ++++++++++++++++++++++++to 0.00690845
Heightened Def Con from 0.00690845 ++++++++++++++++++++++++to 0.00690845
Heightened Def Con from 0.00690845 ++++++++++++++++++++++++to 0.00690845
Heightened Def Con from 0.00690845 ++++++++++++++++++++++++to 0.00690845
Heightened Def Con from 0.00690845 ++++++++++++++++++++++++to 0.00690845
Heightened Def Con from 0.00690845 ++++++++++++++++++++++++to 0.00690846
Heightened Def Con from 0.00690846 ++++++++++++++++++++++++to 0.00690846
Heightened Def Con from 0.00690846 ++++++++++++++++++++++++to 0.00690846
Heightened Def Con from 0.00690846 ++++++++++++++++++++++++to 0.00690846
Heightened Def Con from 0.00690846 ++++++++++++++++++++++++to 0.00690846
Heightened Def Con from 0.00690846 ++++++++++++++++++++++++to 0.00690847
Heightened Def Con from 0.00690847 ++++++++++++++++++++++++to 0.00690847
Heightened Def Con from 0.00690847 ++++++++++++++++++++++++to 0.00690847
Heightened Def Con from 0.00690847 ++++++++++++++++++++++++to 0.00690847
Heightened Def Con from 0.00690847 ++++++++++++++++++++++++to 0.00690847
Heightened Def Con from 0.00690847 ++++++++++++++++++++++++to 0.00690848
Heightened Def Con from 0.00690848 ++++++++++++++++++++++++to 0.00690848
Heightened Def Con from 0.00690848 ++++++++++++++++++++++++to 0.00690848
Heightened Def Con from 0.00690848 ++++++++++++++++++++++++to 0.00690848
Heightened Def Con from 0.00690848 ++++++++++++++++++++++++to 0.00690848
Heightened Def Con from 0.00690848 ++++++++++++++++++++++++to 0.00690848
Heightened Def Con from 0.00690849 ++++++++++++++++++++++++to 0.00690849
Heightened Def Con from 0.00690849 ++++++++++++++++++++++++to 0.00690849
Heightened Def Con from 0.00690849 ++++++++++++++++++++++++to 0.00690849
Heightened Def Con from 0.00690849 ++++++++++++++++++++++++to 0.00690849
Heightened Def Con from 0.00690849 ++++++++++++++++++++++++to 0.00690849
Heightened Def Con from 0.0069085 ++++++++++++++++++++++++to 0.0069085
Heightened Def Con from 0.0069085 ++++++++++++++++++++++++to 0.0069085
Heightened Def Con from 0.0069085 ++++++++++++++++++++++++to 0.0069085
Heightened Def Con from 0.0069085 ++++++++++++++++++++++++to 0.0069085
Heightened Def Con from 0.0069085 ++++++++++++++++++++++++to 0.0069085
Heightened Def Con from 0.00690851 ++++++++++++++++++++++++to 0.00690851
Heightened Def Con from 0.00690851 ++++++++++++++++++++++++to 0.00690851
Heightened Def Con from 0.00690851 ++++++++++++++++++++++++to 0.00690851
Heightened Def Con from 0.00690851 ++++++++++++++++++++++++to 0.00690851
Heightened Def Con from 0.00690851 ++++++++++++++++++++++++to 0.00690851
Heightened Def Con from 0.00690851 ++++++++++++++++++++++++to 0.00690852
Heightened Def Con from 0.00690852 ++++++++++++++++++++++++to 0.00690852
Heightened Def Con from 0.00690852 ++++++++++++++++++++++++to 0.00690852
Heightened Def Con from 0.00690852 ++++++++++++++++++++++++to 0.00690852
Heightened Def Con from 0.00690852 ++++++++++++++++++++++++to 0.00690852
Heightened Def Con from 0.00690852 ++++++++++++++++++++++++to 0.00690853
Heightened Def Con from 0.00690853 ++++++++++++++++++++++++to 0.00690853
Heightened Def Con from 0.00690853 ++++++++++++++++++++++++to 0.00690853
Heightened Def Con from 0.00690853 ++++++++++++++++++++++++to 0.00690853
Heightened Def Con from 0.00690853 ++++++++++++++++++++++++to 0.00690853
Heightened Def Con from 0.00690853 ++++++++++++++++++++++++to 0.00690853
Heightened Def Con from 0.00690854 ++++++++++++++++++++++++to 0.00690854
Heightened Def Con from 0.00690854 ++++++++++++++++++++++++to 0.00690854
Heightened Def Con from 0.00690854 ++++++++++++++++++++++++to 0.00690854
Heightened Def Con from 0.00690854 ++++++++++++++++++++++++to 0.00690854
Heightened Def Con from 0.00690854 ++++++++++++++++++++++++to 0.00690854
Heightened Def Con from 0.00690855 ++++++++++++++++++++++++to 0.00690855
Heightened Def Con from 0.00690855 ++++++++++++++++++++++++to 0.00690855
Heightened Def Con from 0.00690855 