Circuit: * C:\Users\wesle\Desktop\projetos\joule_thief\joule_thief.asc

Direct Newton iteration for .op point succeeded.

Date: Sun Jan 19 11:19:52 2020
Total elapsed time: 0.186 seconds.

tnom = 27
temp = 27
method = modified trap
totiter = 2105
traniter = 2088
tranpoints = 1045
accept = 1045
rejected = 0
matrix size = 8
fillins = 6
solver = Normal
Matrix Compiler1: 1.04 KB object code size  0.4/0.2/[0.2]
Matrix Compiler2: 792 bytes object code size  0.2/0.2/[0.2]

