Circuit: * C:\Users\wesle\Desktop\projetos\joule_thief\transformador.asc

WARNING: Less than two connections to node VOUT.  This node is used by L2.
.OP point found by inspection.

Date: Sat Mar 07 22:56:35 2020
Total elapsed time: 0.090 seconds.

tnom = 27
temp = 27
method = modified trap
totiter = 5465
traniter = 5465
tranpoints = 2458
accept = 1736
rejected = 722
matrix size = 4
fillins = 0
solver = Normal
Matrix Compiler1: 154 bytes object code size  0.1/0.1/[0.1]
Matrix Compiler2: 262 bytes object code size  0.1/0.1/[0.0]

