Circuit: * C:\Users\wesle\Desktop\projetos\timer_granja\fonte_capacitiva\Draft2.asc

.OP point found by inspection.

Date: Mon Apr 13 09:59:02 2020
Total elapsed time: 0.100 seconds.

tnom = 27
temp = 27
method = modified trap
totiter = 13838
traniter = 13838
tranpoints = 3414
accept = 2334
rejected = 1080
matrix size = 5
fillins = 3
solver = Normal
Matrix Compiler1: 342 bytes object code size  0.1/0.1/[0.1]
Matrix Compiler2: 403 bytes object code size  0.1/0.1/[0.1]

