Circuit: * C:\Users\wesle\Desktop\projetos\Fonte\fonte_chaveada_completa\Draft1.asc

Limiting rise time of source v1 to 5e-005
Limiting fall time of source v1 to 5e-005
.OP point found by inspection.

Date: Mon Mar 30 13:25:13 2020
Total elapsed time: 0.299 seconds.

tnom = 27
temp = 27
method = modified trap
totiter = 4240
traniter = 4240
tranpoints = 2121
accept = 2008
rejected = 113
matrix size = 1
fillins = 0
solver = Normal
Matrix Compiler1: off  [0.0]/0.0/0.0
Matrix Compiler2: 43 bytes object code size  0.0/0.0/[0.0]

