Circuit: * C:\Users\wesle\Desktop\projetos\lm555\Constant_Frequency\LTspice\Draft1.asc

Direct Newton iteration for .op point succeeded.

Date: Sun Mar 29 18:13:43 2020
Total elapsed time: 0.113 seconds.

tnom = 27
temp = 27
method = modified trap
totiter = 5834
traniter = 5808
tranpoints = 1833
accept = 1643
rejected = 190
matrix size = 16
fillins = 2
solver = Normal
Matrix Compiler1: 644 bytes object code size  0.2/0.1/[0.1]
Matrix Compiler2: 990 bytes object code size  0.1/0.2/[0.1]

