Circuit: * C:\Users\wesle\Desktop\projetos\Fonte\fonte_capacitiva\Draft1.asc

.OP point found by inspection.

Date: Wed Feb 26 15:00:07 2020
Total elapsed time: 0.170 seconds.

tnom = 27
temp = 27
method = modified trap
totiter = 4457
traniter = 4457
tranpoints = 1360
accept = 1204
rejected = 156
matrix size = 4
fillins = 0
solver = Normal
Matrix Compiler1:       6 opcodes  0.1/[0.0]/0.1
Matrix Compiler2: off  [0.0]/0.1/0.0

