Circuit: * C:\Users\wesle\Desktop\projetos\Fonte\fonte_capacitiva\Draft2.asc

.OP point found by inspection.

Date: Wed Feb 26 16:05:38 2020
Total elapsed time: 0.089 seconds.

tnom = 27
temp = 27
method = modified trap
totiter = 13838
traniter = 13838
tranpoints = 3416
accept = 2336
rejected = 1080
matrix size = 5
fillins = 3
solver = Normal
Matrix Compiler1: 342 bytes object code size  0.1/0.1/[0.0]
Matrix Compiler2: 403 bytes object code size  0.1/0.1/[0.0]

